8K5R - minimized_ligand
                    3D
 Structure written by MMmdl.
 47 49  0  0  1  0            999 V2000
   54.4817  -15.4702  -12.3258 N   0  0  0  0  0  0
   52.3681  -16.4931  -11.8539 N   0  0  0  0  0  0
   51.2769  -19.4052  -12.2478 C   0  0  0  0  0  0
   50.1283  -18.4967  -12.7255 C   0  0  0  0  0  0
   53.0432  -17.6448  -11.5826 C   0  0  0  0  0  0
   54.4387  -17.7448  -11.6912 C   0  0  0  0  0  0
   55.1868  -16.6208  -12.0614 C   0  0  0  0  0  0
   52.7267  -14.1031  -12.5751 C   0  0  0  0  0  0
   58.7907  -17.7478  -12.5189 C   0  0  0  0  0  0
   58.8113  -19.1537  -10.5062 C   0  0  2  0  0  0
   52.1048  -20.9019   -9.5261 C   0  0  0  0  0  0
   52.9582  -19.9314  -10.3603 C   0  0  0  0  0  0
   52.1633  -18.8208  -11.1091 C   0  0  0  0  0  0
   54.9924  -14.2677  -12.7027 N   0  0  0  0  0  0
   53.9428  -13.4859  -12.8522 C   0  0  0  0  0  0
   53.0790  -15.4239  -12.2279 C   0  0  0  0  0  0
   56.5930  -16.6341  -12.1657 N   0  0  0  0  0  0
   57.3804  -17.8402  -11.9382 C   0  0  2  0  0  0
   59.5535  -18.8856  -11.8305 C   0  0  0  0  0  0
   58.3818  -20.6102  -10.3017 N   0  3  0  0  0  0
   57.6677  -18.1275  -10.4598 C   0  0  0  0  0  0
   51.8996  -19.6944  -13.0951 H   0  0  0  0  0  0
   50.8095  -20.3282  -11.9084 H   0  0  0  0  0  0
   49.4494  -19.0419  -13.3812 H   0  0  0  0  0  0
   49.5391  -18.1265  -11.8859 H   0  0  0  0  0  0
   50.4930  -17.6393  -13.2901 H   0  0  0  0  0  0
   54.9308  -18.6747  -11.4636 H   0  0  0  0  0  0
   51.7467  -13.6528  -12.6267 H   0  0  0  0  0  0
   59.2521  -16.7920  -12.2630 H   0  0  0  0  0  0
   58.7994  -17.8405  -13.6053 H   0  0  0  0  0  0
   59.4755  -19.0216   -9.6532 H   0  0  0  0  0  0
   52.7410  -21.6022   -8.9839 H   0  0  0  0  0  0
   51.5114  -20.3662   -8.7841 H   0  0  0  0  0  0
   51.4246  -21.4942  -10.1370 H   0  0  0  0  0  0
   53.5582  -20.5049  -11.0681 H   0  0  0  0  0  0
   53.6610  -19.4650   -9.6675 H   0  0  0  0  0  0
   51.4918  -18.3944  -10.3602 H   0  0  0  0  0  0
   54.0518  -12.4651  -13.1792 H   0  0  0  0  0  0
   57.0785  -15.7681  -12.3579 H   0  0  0  0  0  0
   56.8944  -18.7101  -12.3831 H   0  0  0  0  0  0
   60.6015  -18.6268  -11.6715 H   0  0  0  0  0  0
   59.5414  -19.7715  -12.4679 H   0  0  0  0  0  0
   57.9584  -20.7267   -9.3916 H   0  0  0  0  0  0
   57.7173  -20.8835  -11.0110 H   0  0  0  0  0  0
   59.1860  -21.2195  -10.3587 H   0  0  0  0  0  0
   58.0052  -17.2189   -9.9549 H   0  0  0  0  0  0
   56.7916  -18.4914   -9.9223 H   0  0  0  0  0  0
  1  7  1  0  0  0
  1 14  1  0  0  0
  1 16  1  0  0  0
  2  5  2  0  0  0
  2 16  1  0  0  0
  3  4  1  0  0  0
  3 13  1  0  0  0
  3 22  1  0  0  0
  3 23  1  0  0  0
  4 24  1  0  0  0
  4 25  1  0  0  0
  4 26  1  0  0  0
  5  6  1  0  0  0
  5 13  1  0  0  0
  6  7  2  0  0  0
  6 27  1  0  0  0
  7 17  1  0  0  0
  8 15  1  0  0  0
  8 16  2  0  0  0
  8 28  1  0  0  0
  9 18  1  0  0  0
  9 19  1  0  0  0
  9 29  1  0  0  0
  9 30  1  0  0  0
 10 19  1  0  0  0
 10 20  1  0  0  0
 10 21  1  0  0  0
 10 31  1  0  0  0
 11 12  1  0  0  0
 11 32  1  0  0  0
 11 33  1  0  0  0
 11 34  1  0  0  0
 12 13  1  0  0  0
 12 35  1  0  0  0
 12 36  1  0  0  0
 13 37  1  0  0  0
 14 15  2  0  0  0
 15 38  1  0  0  0
 17 18  1  0  0  0
 17 39  1  0  0  0
 18 21  1  0  0  0
 18 40  1  0  0  0
 19 41  1  0  0  0
 19 42  1  0  0  0
 20 43  1  0  0  0
 20 44  1  0  0  0
 20 45  1  0  0  0
 21 46  1  0  0  0
 21 47  1  0  0  0
M  CHG  1  20   1
M  END
> <s_m_entry_id>
92

> <s_m_entry_name>
8k5r.1_ligand

> <s_m_subgroup_title>
8K5R - minimized_split_by_structure

> <s_m_subgroupid>
8K5R - minimized_split_by_structure

> <b_m_subgroup_collapsed>
0

$$$$
