REMARK SMILES C1=CC=NC=1
REMARK SMILES IDX 4 1 3 2 5 3 2 4 1 5
REMARK H PARENT
REMARK Flexibility Score: inf
ROOT
ATOM      1  N   UNL     1     -30.523  -6.686 141.799  1.00  0.00    -0.256 NA
ATOM      2  C   UNL     1     -31.114  -7.551 142.415  1.00  0.00     0.120 C 
ATOM      3  C   UNL     1     -29.564  -7.252 140.979  1.00  0.00     0.162 C 
ATOM      4  C   UNL     1     -30.530  -8.821 142.426  1.00  0.00     0.073 C 
ATOM      5  C   UNL     1     -29.424  -8.587 141.452  1.00  0.00    -0.099 C 
ENDROOT
TORSDOF 0
