REMARK SMILES NC1=NC2C3=C4N(C=CC3=N1)C=C1CC3=C(N=CC5=NC=C[C@H]53)N=C1N4c1nccn12
REMARK SMILES IDX 12 1 13 2 14 3 25 4 15 5 7 6 8 7 6 8 16 9 26 10 5 11 4 12
REMARK SMILES IDX 27 13 10 14 31 15 30 16 9 17 23 18 17 19 22 20 18 21 24 22
REMARK SMILES IDX 11 23 28 24 2 25 1 26 3 27 21 28 29 29 20 30 19 31
REMARK H PARENT 1 32 1 33
REMARK Flexibility Score: inf
ROOT
ATOM      1  C   UNL     1     -28.691 -10.788 145.700  1.00  0.00     0.100 C 
ATOM      2  C   UNL     1     -27.873 -11.552 145.203  1.00  0.00     0.016 C 
ATOM      3  C   UNL     1     -27.188 -12.562 145.876  1.00  0.00     0.077 C 
ATOM      4  C   UNL     1     -27.416 -11.511 143.773  1.00  0.00     0.148 C 
ATOM      5  C   UNL     1     -25.888 -12.970 145.700  1.00  0.00    -0.008 C 
ATOM      6  N   UNL     1     -29.335  -9.748 144.873  1.00  0.00    -0.309 N 
ATOM      7  C   UNL     1     -30.329  -8.989 145.215  1.00  0.00     0.095 C 
ATOM      8  C   UNL     1     -28.802  -9.740 143.629  1.00  0.00     0.135 C 
ATOM      9  C   UNL     1     -25.361 -12.503 144.417  1.00  0.00     0.154 C 
ATOM     10  N   UNL     1     -27.958 -10.582 142.987  1.00  0.00    -0.248 N 
ATOM     11  C   UNL     1     -29.334  -8.878 142.621  1.00  0.00     0.065 C 
ATOM     12  C   UNL     1     -28.971  -8.932 141.308  1.00  0.00     0.248 C 
ATOM     13  C   UNL     1     -27.549 -10.561 141.688  1.00  0.00     0.219 A 
ATOM     14  C   UNL     1     -30.430  -7.767 142.956  1.00  0.00     0.079 C 
ATOM     15  N   UNL     1     -28.187  -9.788 140.903  1.00  0.00    -0.289 N 
ATOM     16  C   UNL     1     -27.924 -10.019 139.454  1.00  0.00     0.112 A 
ATOM     17  C   UNL     1     -30.802  -8.012 144.327  1.00  0.00     0.047 C 
ATOM     18  C   UNL     1     -25.250 -14.140 146.251  1.00  0.00     0.094 C 
ATOM     19  N   UNL     1     -24.045 -12.914 144.031  1.00  0.00    -0.235 NA
ATOM     20  C   UNL     1     -25.845 -14.794 147.351  1.00  0.00     0.007 C 
ATOM     21  C   UNL     1     -23.382 -13.739 144.835  1.00  0.00     0.138 C 
ATOM     22  N   UNL     1     -26.089 -11.965 143.431  1.00  0.00    -0.211 NA
ATOM     23  N   UNL     1     -30.732  -6.845 142.153  1.00  0.00    -0.214 NA
ATOM     24  N   UNL     1     -27.140 -11.631 140.898  1.00  0.00    -0.221 NA
ATOM     25  C   UNL     1     -30.264  -6.931 140.818  1.00  0.00     0.218 C 
ATOM     26  N   UNL     1     -30.564  -6.000 139.980  1.00  0.00    -0.368 N 
ATOM     27  N   UNL     1     -29.588  -7.902 140.645  1.00  0.00    -0.221 NA
ATOM     28  C   UNL     1     -25.205 -15.968 147.721  1.00  0.00     0.108 C 
ATOM     29  C   UNL     1     -27.139 -11.231 139.606  1.00  0.00     0.133 A 
ATOM     30  N   UNL     1     -24.004 -16.082 146.998  1.00  0.00    -0.259 NA
ATOM     31  C   UNL     1     -24.041 -14.627 145.889  1.00  0.00     0.070 C 
ATOM     32  H   UNL     1       0.000   0.000   0.000  1.00  0.00     0.159 HD
ATOM     33  H   UNL     1       0.000   0.000   0.000  1.00  0.00     0.159 HD
ENDROOT
TORSDOF 0
