REMARK SMILES Cc1cccc2c1CC=C1CC=CC=C12
REMARK SMILES IDX 4 1 5 2 6 3 7 4 3 5 2 6 15 7 14 8 10 9 9 10 8 11 1 12 13 13
REMARK SMILES IDX 12 14 11 15
REMARK H PARENT
REMARK Flexibility Score: inf
ROOT
ATOM      1  C   UNL     1     -28.978  -8.368 139.217  1.00  0.00     0.001 A 
ATOM      2  C   UNL     1     -28.496  -9.503 139.605  1.00  0.00     0.009 A 
ATOM      3  C   UNL     1     -28.721  -9.957 140.717  1.00  0.00    -0.014 A 
ATOM      4  C   UNL     1     -29.369  -8.848 141.565  1.00  0.00    -0.033 A 
ATOM      5  C   UNL     1     -29.589  -7.422 139.856  1.00  0.00     0.004 A 
ATOM      6  C   UNL     1     -29.757  -7.713 141.265  1.00  0.00    -0.047 A 
ATOM      7  C   UNL     1     -28.314 -11.196 141.348  1.00  0.00    -0.015 C 
ATOM      8  C   UNL     1     -27.631 -12.005 140.620  1.00  0.00     0.009 C 
ATOM      9  C   UNL     1     -28.794 -11.630 142.661  1.00  0.00    -0.040 C 
ATOM     10  C   UNL     1     -29.319 -10.618 143.503  1.00  0.00    -0.018 C 
ATOM     11  C   UNL     1     -29.424  -9.227 143.122  1.00  0.00     0.064 C 
ATOM     12  C   UNL     1     -30.443  -6.673 142.196  1.00  0.00     0.044 C 
ATOM     13  C   UNL     1     -26.905 -13.088 141.274  1.00  0.00    -0.003 C 
ATOM     14  C   UNL     1     -27.316 -13.349 142.585  1.00  0.00    -0.022 C 
ATOM     15  C   UNL     1     -28.087 -12.560 143.359  1.00  0.00     0.063 C 
ENDROOT
TORSDOF 0
