REMARK SMILES C1=CN2C=C3CC(c4cc[nH]c4)=CN=C3N3C4=CCC=C5N=CC6=C(C(=C23)C1N=C6)N54
REMARK SMILES IDX 4 1 5 2 6 3 15 4 7 5 3 6 2 7 27 8 13 9 16 10 26 11 25 12
REMARK SMILES IDX 17 13 28 14 31 15 21 16 1 17 22 18 23 19 14 20 20 21 29 22
REMARK SMILES IDX 18 23 19 24 24 25 30 26 8 27 12 28 9 29 11 30 10 31
REMARK H PARENT 11 32
REMARK Flexibility Score: inf
ROOT
ATOM      1  C   UNL     1     -28.691 -10.788 145.700  1.00  0.00     0.100 C 
ATOM      2  C   UNL     1     -27.873 -11.552 145.203  1.00  0.00     0.017 C 
ATOM      3  C   UNL     1     -27.188 -12.562 145.876  1.00  0.00     0.078 C 
ATOM      4  C   UNL     1     -27.416 -11.511 143.773  1.00  0.00     0.144 C 
ATOM      5  C   UNL     1     -25.888 -12.970 145.700  1.00  0.00    -0.016 C 
ATOM      6  N   UNL     1     -29.335  -9.748 144.873  1.00  0.00    -0.309 N 
ATOM      7  C   UNL     1     -30.329  -8.989 145.215  1.00  0.00     0.091 C 
ATOM      8  C   UNL     1     -28.802  -9.740 143.629  1.00  0.00     0.132 C 
ATOM      9  C   UNL     1     -25.361 -12.503 144.417  1.00  0.00     0.118 C 
ATOM     10  N   UNL     1     -27.958 -10.582 142.987  1.00  0.00    -0.264 N 
ATOM     11  C   UNL     1     -29.334  -8.878 142.621  1.00  0.00     0.047 C 
ATOM     12  C   UNL     1     -28.971  -8.932 141.308  1.00  0.00     0.069 C 
ATOM     13  C   UNL     1     -27.549 -10.561 141.688  1.00  0.00     0.122 C 
ATOM     14  C   UNL     1     -30.430  -7.767 142.956  1.00  0.00     0.165 C 
ATOM     15  N   UNL     1     -28.187  -9.788 140.903  1.00  0.00    -0.279 N 
ATOM     16  C   UNL     1     -27.924 -10.019 139.454  1.00  0.00     0.134 C 
ATOM     17  C   UNL     1     -30.802  -8.012 144.327  1.00  0.00     0.023 C 
ATOM     18  N   UNL     1     -28.230  -9.024 138.583  1.00  0.00    -0.238 NA
ATOM     19  C   UNL     1     -28.914  -7.900 139.112  1.00  0.00     0.125 C 
ATOM     20  N   UNL     1     -26.119 -11.961 143.417  1.00  0.00    -0.238 NA
ATOM     21  C   UNL     1     -27.290 -11.130 139.320  1.00  0.00     0.025 C 
ATOM     22  N   UNL     1     -30.834  -6.965 142.156  1.00  0.00    -0.280 NA
ATOM     23  C   UNL     1     -26.759 -11.678 141.135  1.00  0.00     0.023 C 
ATOM     24  C   UNL     1     -26.648 -11.971 139.970  1.00  0.00     0.062 C 
ATOM     25  C   UNL     1     -29.329  -7.854 140.429  1.00  0.00     0.035 C 
ATOM     26  C   UNL     1     -30.316  -6.938 140.868  1.00  0.00     0.118 C 
ENDROOT
BRANCH   5  27
ATOM     27  C   UNL     1     -25.250 -14.140 146.251  1.00  0.00    -0.003 A 
ATOM     28  C   UNL     1     -23.870 -14.413 146.000  1.00  0.00     0.090 A 
ATOM     29  C   UNL     1     -25.832 -14.909 147.290  1.00  0.00     0.027 A 
ATOM     30  N   UNL     1     -23.699 -15.601 146.840  1.00  0.00    -0.367 N 
ATOM     31  C   UNL     1     -24.969 -15.949 147.596  1.00  0.00     0.083 A 
ATOM     32  H   UNL     1       0.000   0.000   0.000  1.00  0.00     0.165 HD
ENDBRANCH   5  27
TORSDOF 1
