REMARK SMILES CN1C(=O)NC2=NCN3C=C4CC5=C(N=C4n4c3c2c1nc4=O)NCc1ccccc15
REMARK SMILES IDX 10 1 11 2 12 3 16 4 13 5 9 6 8 7 18 8 14 9 17 10 19 11 20 12
REMARK SMILES IDX 31 13 21 14 6 15 26 16 5 17 30 18 29 19 22 20 7 21 28 22
REMARK SMILES IDX 15 23 2 24 3 25 1 26 4 27 25 28 24 29 27 30 23 31
REMARK H PARENT 5 32 24 33
REMARK Flexibility Score: inf
ROOT
ATOM      1  C   UNL     1     -28.691 -10.788 145.700  1.00  0.00     0.097 C 
ATOM      2  C   UNL     1     -27.873 -11.552 145.203  1.00  0.00     0.017 C 
ATOM      3  C   UNL     1     -27.188 -12.562 145.876  1.00  0.00     0.081 C 
ATOM      4  C   UNL     1     -27.416 -11.511 143.773  1.00  0.00     0.150 C 
ATOM      5  C   UNL     1     -25.888 -12.970 145.700  1.00  0.00     0.007 C 
ATOM      6  N   UNL     1     -29.335  -9.748 144.873  1.00  0.00    -0.313 N 
ATOM      7  C   UNL     1     -30.329  -8.989 145.215  1.00  0.00     0.269 C 
ATOM      8  C   UNL     1     -28.802  -9.740 143.629  1.00  0.00     0.139 A 
ATOM      9  C   UNL     1     -25.361 -12.503 144.417  1.00  0.00     0.132 C 
ATOM     10  N   UNL     1     -27.958 -10.582 142.987  1.00  0.00    -0.228 N 
ATOM     11  C   UNL     1     -29.334  -8.878 142.621  1.00  0.00     0.102 A 
ATOM     12  C   UNL     1     -28.971  -8.932 141.308  1.00  0.00     0.157 A 
ATOM     13  C   UNL     1     -25.194 -13.918 146.492  1.00  0.00    -0.013 A 
ATOM     14  N   UNL     1     -28.103  -9.864 140.832  1.00  0.00    -0.174 NA
ATOM     15  C   UNL     1     -30.341  -7.757 142.902  1.00  0.00     0.145 C 
ATOM     16  C   UNL     1     -23.817 -14.123 146.064  1.00  0.00    -0.021 A 
ATOM     17  N   UNL     1     -30.696  -6.885 142.064  1.00  0.00    -0.291 N 
ATOM     18  C   UNL     1     -25.724 -14.705 147.391  1.00  0.00     0.009 A 
ATOM     19  C   UNL     1     -25.047 -15.758 148.044  1.00  0.00     0.001 A 
ATOM     20  C   UNL     1     -27.596 -10.715 141.678  1.00  0.00     0.357 A 
ATOM     21  N   UNL     1     -30.890  -7.851 144.112  1.00  0.00    -0.245 NA
ATOM     22  C   UNL     1     -24.004 -16.175 147.418  1.00  0.00     0.000 A 
ATOM     23  N   UNL     1     -26.115 -11.891 143.485  1.00  0.00    -0.213 NA
ATOM     24  N   UNL     1     -29.482  -7.945 140.385  1.00  0.00    -0.280 N 
ATOM     25  C   UNL     1     -30.244  -6.940 140.772  1.00  0.00     0.328 C 
ATOM     26  C   UNL     1     -29.026  -7.806 139.049  1.00  0.00     0.157 C 
ATOM     27  O   UNL     1     -30.609  -6.019 140.091  1.00  0.00    -0.248 OA
ATOM     28  C   UNL     1     -23.130 -13.314 145.168  1.00  0.00     0.151 C 
ATOM     29  N   UNL     1     -24.014 -12.811 144.029  1.00  0.00    -0.366 N 
ATOM     30  C   UNL     1     -23.255 -15.352 146.538  1.00  0.00     0.006 A 
ATOM     31  O   UNL     1     -26.777 -11.637 141.105  1.00  0.00    -0.245 OA
ATOM     32  H   UNL     1       0.000   0.000   0.000  1.00  0.00     0.173 HD
ATOM     33  H   UNL     1       0.000   0.000   0.000  1.00  0.00     0.162 HD
ENDROOT
TORSDOF 0
