REMARK SMILES O[C@H]1N=c2ccn3cc4c(n5c6ccc7ncc1c(c2=c-3-5)n76)=NC=C(C1=NN=C=N1)C4
REMARK SMILES IDX 8 1 9 2 31 3 10 4 25 5 7 6 6 7 21 8 24 9 11 10 20 11 19 12
REMARK SMILES IDX 12 13 4 14 22 15 15 16 5 17 16 18 17 19 23 20 14 21 3 22
REMARK SMILES IDX 13 23 18 24 2 25 26 26 27 27 30 28 28 29 29 30 1 31
REMARK H PARENT 1 32
REMARK Flexibility Score: inf
ROOT
ATOM      1  C   UNL     1     -28.691 -10.788 145.700  1.00  0.00     0.100 A 
ATOM      2  C   UNL     1     -27.873 -11.552 145.203  1.00  0.00     0.017 A 
ATOM      3  C   UNL     1     -27.188 -12.562 145.876  1.00  0.00     0.082 C 
ATOM      4  C   UNL     1     -27.416 -11.511 143.773  1.00  0.00     0.144 A 
ATOM      5  C   UNL     1     -25.888 -12.970 145.700  1.00  0.00     0.022 C 
ATOM      6  N   UNL     1     -29.335  -9.748 144.873  1.00  0.00    -0.309 N 
ATOM      7  C   UNL     1     -30.329  -8.989 145.215  1.00  0.00     0.095 A 
ATOM      8  C   UNL     1     -28.802  -9.740 143.629  1.00  0.00     0.135 A 
ATOM      9  C   UNL     1     -25.361 -12.503 144.417  1.00  0.00     0.121 C 
ATOM     10  N   UNL     1     -27.958 -10.582 142.987  1.00  0.00    -0.264 N 
ATOM     11  C   UNL     1     -29.334  -8.878 142.621  1.00  0.00     0.067 A 
ATOM     12  C   UNL     1     -28.971  -8.932 141.308  1.00  0.00     0.071 A 
ATOM     13  C   UNL     1     -27.549 -10.561 141.688  1.00  0.00     0.126 A 
ATOM     14  C   UNL     1     -30.430  -7.767 142.956  1.00  0.00     0.075 A 
ATOM     15  N   UNL     1     -28.187  -9.788 140.903  1.00  0.00    -0.279 N 
ATOM     16  C   UNL     1     -27.924 -10.019 139.454  1.00  0.00     0.138 A 
ATOM     17  C   UNL     1     -30.802  -8.012 144.327  1.00  0.00     0.047 A 
ATOM     18  N   UNL     1     -28.230  -9.024 138.583  1.00  0.00    -0.238 NA
ATOM     19  C   UNL     1     -28.914  -7.900 139.112  1.00  0.00     0.124 A 
ATOM     20  N   UNL     1     -26.119 -11.961 143.417  1.00  0.00    -0.238 NA
ATOM     21  C   UNL     1     -27.290 -11.130 139.320  1.00  0.00     0.051 A 
ATOM     22  N   UNL     1     -30.793  -7.053 142.056  1.00  0.00    -0.249 NA
ATOM     23  C   UNL     1     -26.949 -11.832 140.591  1.00  0.00     0.050 A 
ATOM     24  C   UNL     1     -29.327  -7.790 140.361  1.00  0.00     0.046 A 
ATOM     25  C   UNL     1     -30.165  -6.656 140.745  1.00  0.00     0.267 C 
ENDROOT
BRANCH   5  26
ATOM     26  C   UNL     1     -25.250 -14.140 146.251  1.00  0.00     0.191 C 
ATOM     27  N   UNL     1     -24.024 -14.524 145.815  1.00  0.00    -0.119 NA
ATOM     28  N   UNL     1     -25.794 -14.938 147.187  1.00  0.00    -0.163 NA
ATOM     29  N   UNL     1     -23.700 -15.728 146.457  1.00  0.00    -0.083 NA
ATOM     30  C   UNL     1     -24.808 -15.920 147.330  1.00  0.00     0.124 C 
ENDBRANCH   5  26
BRANCH  25  31
ATOM     31  O   UNL     1     -30.831  -5.890 140.086  1.00  0.00    -0.368 OA
ATOM     32  H   UNL     1       0.000   0.000   0.000  1.00  0.00     0.213 HD
ENDBRANCH  25  31
TORSDOF 2
