REMARK SMILES NC1=NC2=NCn3cc4c5c([nH]nc6nc(c2c3-n-6-5)N1)C1=C(C4)c2ccccc2CN1
REMARK SMILES IDX 8 1 9 2 23 3 10 4 22 5 7 6 6 7 18 8 21 9 19 10 17 11 16 12
REMARK SMILES IDX 24 13 15 14 4 15 29 16 3 17 25 18 5 19 14 20 2 21 31 22
REMARK SMILES IDX 28 23 20 24 13 25 11 26 12 27 30 28 26 29 27 30 1 31
REMARK H PARENT 31 32 20 33 12 34 1 35 1 36
REMARK Flexibility Score: inf
ROOT
ATOM      1  C   UNL     1     -28.691 -10.788 145.700  1.00  0.00     0.095 A 
ATOM      2  C   UNL     1     -27.873 -11.552 145.203  1.00  0.00    -0.001 A 
ATOM      3  C   UNL     1     -27.188 -12.562 145.876  1.00  0.00     0.077 C 
ATOM      4  C   UNL     1     -27.416 -11.511 143.773  1.00  0.00     0.083 A 
ATOM      5  C   UNL     1     -25.888 -12.970 145.700  1.00  0.00    -0.010 C 
ATOM      6  N   UNL     1     -29.335  -9.748 144.873  1.00  0.00    -0.313 N 
ATOM      7  C   UNL     1     -30.329  -8.989 145.215  1.00  0.00     0.269 C 
ATOM      8  C   UNL     1     -28.802  -9.740 143.629  1.00  0.00     0.136 A 
ATOM      9  C   UNL     1     -25.361 -12.503 144.417  1.00  0.00     0.066 C 
ATOM     10  N   UNL     1     -27.958 -10.582 142.987  1.00  0.00    -0.260 N 
ATOM     11  C   UNL     1     -29.334  -8.878 142.621  1.00  0.00     0.104 A 
ATOM     12  C   UNL     1     -28.971  -8.932 141.308  1.00  0.00     0.151 A 
ATOM     13  C   UNL     1     -25.194 -13.918 146.492  1.00  0.00    -0.015 A 
ATOM     14  N   UNL     1     -28.103  -9.864 140.832  1.00  0.00    -0.193 NA
ATOM     15  C   UNL     1     -30.341  -7.757 142.902  1.00  0.00     0.167 C 
ATOM     16  C   UNL     1     -23.817 -14.123 146.064  1.00  0.00    -0.021 A 
ATOM     17  N   UNL     1     -30.696  -6.885 142.064  1.00  0.00    -0.195 NA
ATOM     18  C   UNL     1     -25.724 -14.705 147.391  1.00  0.00     0.009 A 
ATOM     19  N   UNL     1     -31.008  -7.711 144.131  1.00  0.00    -0.244 NA
ATOM     20  C   UNL     1     -27.603 -10.725 141.684  1.00  0.00     0.255 A 
ATOM     21  C   UNL     1     -30.125  -6.965 140.757  1.00  0.00     0.201 C 
ATOM     22  N   UNL     1     -24.054 -12.935 144.008  1.00  0.00    -0.379 N 
ATOM     23  C   UNL     1     -23.236 -15.134 146.657  1.00  0.00     0.006 A 
ATOM     24  N   UNL     1     -29.407  -8.055 140.260  1.00  0.00    -0.310 N 
ATOM     25  N   UNL     1     -26.754 -11.661 141.322  1.00  0.00    -0.135 NA
ATOM     26  C   UNL     1     -26.242 -12.127 143.131  1.00  0.00     0.104 A 
ATOM     27  N   UNL     1     -26.153 -12.466 142.050  1.00  0.00    -0.271 N 
ATOM     28  C   UNL     1     -23.214 -13.346 144.965  1.00  0.00     0.149 C 
ATOM     29  C   UNL     1     -25.040 -15.694 148.002  1.00  0.00     0.001 A 
ATOM     30  C   UNL     1     -23.784 -16.044 147.463  1.00  0.00     0.000 A 
ATOM     31  N   UNL     1     -30.554  -5.915 139.831  1.00  0.00    -0.369 N 
ATOM     32  H   UNL     1       0.000   0.000   0.000  1.00  0.00     0.160 HD
ATOM     33  H   UNL     1       0.000   0.000   0.000  1.00  0.00     0.171 HD
ATOM     34  H   UNL     1       0.000   0.000   0.000  1.00  0.00     0.190 HD
ATOM     35  H   UNL     1       0.000   0.000   0.000  1.00  0.00     0.159 HD
ATOM     36  H   UNL     1       0.000   0.000   0.000  1.00  0.00     0.159 HD
ENDROOT
TORSDOF 0
