REMARK SMILES CCc1ncnc2c1CC1=Cn3ccc4nc(=N)nc5c-4c3N(C1=N2)[C@H]1N=CC=CN51
REMARK SMILES IDX 11 1 10 2 9 3 24 4 8 5 12 6 13 7 22 8 7 9 23 10 21 11 20 12
REMARK SMILES IDX 26 13 15 14 31 15 30 16 14 17 3 18 6 19 5 20 25 21 16 22
REMARK SMILES IDX 17 23 19 24 4 25 18 26 29 27 27 28 28 29 2 31 1 32
REMARK H PARENT 18 30
REMARK Flexibility Score: inf
ROOT
ATOM      1  C   UNL     1     -28.691 -10.788 145.700  1.00  0.00     0.100 C 
ATOM      2  C   UNL     1     -27.873 -11.552 145.203  1.00  0.00     0.016 C 
ATOM      3  C   UNL     1     -27.188 -12.562 145.876  1.00  0.00     0.082 C 
ATOM      4  C   UNL     1     -27.416 -11.511 143.773  1.00  0.00     0.144 C 
ATOM      5  C   UNL     1     -25.888 -12.970 145.700  1.00  0.00     0.023 A 
ATOM      6  N   UNL     1     -29.335  -9.748 144.873  1.00  0.00    -0.309 N 
ATOM      7  C   UNL     1     -30.329  -8.989 145.215  1.00  0.00     0.095 A 
ATOM      8  C   UNL     1     -28.802  -9.740 143.629  1.00  0.00     0.135 A 
ATOM      9  C   UNL     1     -25.361 -12.503 144.417  1.00  0.00     0.161 A 
ATOM     10  N   UNL     1     -27.958 -10.582 142.987  1.00  0.00    -0.269 N 
ATOM     11  C   UNL     1     -29.334  -8.878 142.621  1.00  0.00     0.085 A 
ATOM     12  C   UNL     1     -28.971  -8.932 141.308  1.00  0.00     0.153 A 
ATOM     13  C   UNL     1     -27.549 -10.561 141.688  1.00  0.00     0.316 C 
ATOM     14  C   UNL     1     -30.430  -7.767 142.956  1.00  0.00     0.083 A 
ATOM     15  N   UNL     1     -28.187  -9.788 140.903  1.00  0.00    -0.292 N 
ATOM     16  C   UNL     1     -27.924 -10.019 139.454  1.00  0.00     0.093 C 
ATOM     17  C   UNL     1     -30.802  -8.012 144.327  1.00  0.00     0.048 A 
ATOM     18  C   UNL     1     -25.250 -14.140 146.251  1.00  0.00     0.049 A 
ATOM     19  N   UNL     1     -24.045 -12.914 144.031  1.00  0.00    -0.217 NA
ATOM     20  C   UNL     1     -23.382 -13.739 144.835  1.00  0.00     0.224 A 
ATOM     21  N   UNL     1     -26.089 -11.965 143.431  1.00  0.00    -0.210 NA
ATOM     22  N   UNL     1     -30.732  -6.845 142.153  1.00  0.00    -0.211 NA
ATOM     23  C   UNL     1     -30.176  -7.046 140.801  1.00  0.00     0.244 A 
ATOM     24  N   UNL     1     -29.399  -7.954 140.407  1.00  0.00    -0.193 NA
ATOM     25  N   UNL     1     -23.878 -14.388 145.886  1.00  0.00    -0.241 NA
ATOM     26  N   UNL     1     -30.508  -6.084 140.047  1.00  0.00    -0.265 NA
ATOM     27  C   UNL     1     -27.131 -11.183 139.219  1.00  0.00     0.038 C 
ATOM     28  N   UNL     1     -26.716 -11.656 141.151  1.00  0.00    -0.247 NA
ATOM     29  C   UNL     1     -26.746 -11.857 140.021  1.00  0.00     0.111 C 
ATOM     30  H   UNL     1       0.000   0.000   0.000  1.00  0.00     0.191 HD
ENDROOT
BRANCH  18  31
ATOM     31  C   UNL     1     -25.845 -14.794 147.351  1.00  0.00     0.053 C 
ATOM     32  C   UNL     1     -25.137 -16.095 147.563  1.00  0.00     0.011 C 
ENDBRANCH  18  31
TORSDOF 1
