REMARK SMILES N=c1nc2ncn3cc4c(n5c6[nH]c(=N)ncc6c(n1)c2c35)=Cc1ncncc1C4
REMARK SMILES IDX 8 1 9 2 30 3 10 4 29 5 7 6 6 7 22 8 24 9 11 10 12 11 18 12
REMARK SMILES IDX 19 13 13 14 25 15 14 16 21 17 5 18 20 19 26 20 16 21 4 22
REMARK SMILES IDX 3 23 2 24 23 25 15 26 28 27 17 28 27 29 1 30
REMARK H PARENT 13 31 15 32 1 33
REMARK Flexibility Score: inf
ROOT
ATOM      1  C   UNL     1     -28.691 -10.788 145.700  1.00  0.00     0.100 A 
ATOM      2  C   UNL     1     -27.873 -11.552 145.203  1.00  0.00    -0.002 A 
ATOM      3  C   UNL     1     -27.188 -12.562 145.876  1.00  0.00     0.078 C 
ATOM      4  C   UNL     1     -27.416 -11.511 143.773  1.00  0.00     0.056 A 
ATOM      5  C   UNL     1     -25.888 -12.970 145.700  1.00  0.00     0.001 A 
ATOM      6  N   UNL     1     -29.335  -9.748 144.873  1.00  0.00    -0.292 N 
ATOM      7  C   UNL     1     -30.329  -8.989 145.215  1.00  0.00     0.208 A 
ATOM      8  C   UNL     1     -28.802  -9.740 143.629  1.00  0.00     0.137 A 
ATOM      9  C   UNL     1     -25.361 -12.503 144.417  1.00  0.00     0.072 A 
ATOM     10  N   UNL     1     -27.958 -10.582 142.987  1.00  0.00    -0.280 N 
ATOM     11  C   UNL     1     -27.842 -10.529 141.621  1.00  0.00     0.130 A 
ATOM     12  C   UNL     1     -28.471  -9.726 140.836  1.00  0.00     0.061 A 
ATOM     13  C   UNL     1     -29.332  -8.761 141.426  1.00  0.00     0.094 A 
ATOM     14  N   UNL     1     -26.830 -11.421 141.059  1.00  0.00    -0.310 N 
ATOM     15  N   UNL     1     -24.047 -12.982 144.029  1.00  0.00    -0.237 NA
ATOM     16  C   UNL     1     -26.722 -11.566 139.747  1.00  0.00     0.220 A 
ATOM     17  C   UNL     1     -29.593  -8.821 142.778  1.00  0.00     0.088 A 
ATOM     18  N   UNL     1     -30.926  -8.133 144.363  1.00  0.00    -0.218 NA
ATOM     19  N   UNL     1     -30.145  -7.669 140.905  1.00  0.00    -0.210 NA
ATOM     20  C   UNL     1     -23.423 -13.691 144.855  1.00  0.00     0.222 A 
ATOM     21  N   UNL     1     -27.457 -10.716 138.935  1.00  0.00    -0.221 NA
ATOM     22  C   UNL     1     -30.540  -8.011 143.132  1.00  0.00     0.170 A 
ATOM     23  N   UNL     1     -31.030  -6.981 142.309  1.00  0.00    -0.191 NA
ATOM     24  C   UNL     1     -30.700  -6.826 141.087  1.00  0.00     0.244 A 
ATOM     25  C   UNL     1     -26.168 -12.287 143.304  1.00  0.00     0.055 C 
ATOM     26  N   UNL     1     -26.134 -12.633 139.094  1.00  0.00    -0.267 NA
ATOM     27  C   UNL     1     -25.075 -13.794 146.504  1.00  0.00     0.119 A 
ATOM     28  C   UNL     1     -28.304  -9.773 139.429  1.00  0.00     0.129 A 
ATOM     29  N   UNL     1     -23.928 -14.197 146.075  1.00  0.00    -0.244 NA
ATOM     30  N   UNL     1     -31.243  -5.883 140.307  1.00  0.00    -0.265 NA
ATOM     31  H   UNL     1       0.000   0.000   0.000  1.00  0.00     0.171 HD
ATOM     32  H   UNL     1       0.000   0.000   0.000  1.00  0.00     0.191 HD
ATOM     33  H   UNL     1       0.000   0.000   0.000  1.00  0.00     0.191 HD
ENDROOT
TORSDOF 0
