REMARK SMILES CN1C(=O)N[C@H]2NCN3C=C4Cc5c(ncc6ncncc56)N=C4n4c3c2c1nc4=O
REMARK SMILES IDX 10 1 11 2 12 3 24 4 13 5 9 6 8 7 26 8 14 9 25 10 27 11 28 12
REMARK SMILES IDX 22 13 29 14 6 15 17 16 5 17 21 18 7 19 2 20 20 21 30 22
REMARK SMILES IDX 23 23 19 24 1 25 3 26 16 27 18 28 15 29 31 30 4 31
REMARK H PARENT 5 32 7 33
REMARK Flexibility Score: inf
ROOT
ATOM      1  C   UNL     1     -28.691 -10.788 145.700  1.00  0.00     0.096 C 
ATOM      2  C   UNL     1     -27.873 -11.552 145.203  1.00  0.00     0.017 C 
ATOM      3  C   UNL     1     -27.188 -12.562 145.876  1.00  0.00     0.081 C 
ATOM      4  C   UNL     1     -27.416 -11.511 143.773  1.00  0.00     0.150 C 
ATOM      5  C   UNL     1     -25.888 -12.970 145.700  1.00  0.00     0.012 A 
ATOM      6  N   UNL     1     -29.335  -9.748 144.873  1.00  0.00    -0.320 N 
ATOM      7  C   UNL     1     -30.329  -8.989 145.215  1.00  0.00     0.210 C 
ATOM      8  C   UNL     1     -28.802  -9.740 143.629  1.00  0.00     0.134 A 
ATOM      9  C   UNL     1     -25.361 -12.503 144.417  1.00  0.00     0.158 A 
ATOM     10  N   UNL     1     -27.958 -10.582 142.987  1.00  0.00    -0.228 N 
ATOM     11  C   UNL     1     -29.334  -8.878 142.621  1.00  0.00     0.074 A 
ATOM     12  C   UNL     1     -28.971  -8.932 141.308  1.00  0.00     0.152 A 
ATOM     13  C   UNL     1     -25.194 -13.918 146.492  1.00  0.00     0.027 A 
ATOM     14  N   UNL     1     -28.103  -9.864 140.832  1.00  0.00    -0.174 NA
ATOM     15  C   UNL     1     -30.341  -7.757 142.902  1.00  0.00     0.192 C 
ATOM     16  C   UNL     1     -23.817 -14.123 146.064  1.00  0.00     0.092 A 
ATOM     17  N   UNL     1     -30.696  -6.885 142.064  1.00  0.00    -0.318 N 
ATOM     18  C   UNL     1     -25.724 -14.705 147.391  1.00  0.00     0.123 A 
ATOM     19  N   UNL     1     -31.008  -7.711 144.131  1.00  0.00    -0.275 NA
ATOM     20  N   UNL     1     -29.612  -8.014 140.327  1.00  0.00    -0.281 N 
ATOM     21  N   UNL     1     -24.820 -15.765 147.845  1.00  0.00    -0.244 NA
ATOM     22  C   UNL     1     -27.623 -10.719 141.641  1.00  0.00     0.357 A 
ATOM     23  N   UNL     1     -26.240 -12.074 143.226  1.00  0.00    -0.210 NA
ATOM     24  C   UNL     1     -23.657 -15.912 147.456  1.00  0.00     0.222 A 
ATOM     25  C   UNL     1     -29.109  -8.027 139.082  1.00  0.00     0.157 C 
ATOM     26  C   UNL     1     -30.500  -6.979 140.719  1.00  0.00     0.324 C 
ATOM     27  C   UNL     1     -23.240 -13.197 145.089  1.00  0.00     0.142 A 
ATOM     28  N   UNL     1     -23.127 -15.130 146.451  1.00  0.00    -0.235 NA
ATOM     29  N   UNL     1     -24.056 -12.494 144.243  1.00  0.00    -0.235 NA
ATOM     30  O   UNL     1     -26.700 -11.717 141.292  1.00  0.00    -0.245 OA
ATOM     31  O   UNL     1     -30.688  -5.987 139.951  1.00  0.00    -0.248 OA
ATOM     32  H   UNL     1       0.000   0.000   0.000  1.00  0.00     0.167 HD
ATOM     33  H   UNL     1       0.000   0.000   0.000  1.00  0.00     0.126 HD
ENDROOT
TORSDOF 0
