REMARK SMILES CCc1nc(N)nc2c1Cc1cn3ccc4nc(=N)nc5c4c3n(c1=N2)c1cncn51
REMARK SMILES IDX 12 1 11 2 10 3 25 4 9 5 13 6 14 7 23 8 8 9 24 10 22 11 21 12
REMARK SMILES IDX 27 13 16 14 31 15 30 16 15 17 3 18 7 19 5 20 26 21 17 22
REMARK SMILES IDX 18 23 20 24 4 25 19 26 29 27 28 28 2 30 1 31 6 32
REMARK H PARENT 19 29 6 33 6 34
REMARK Flexibility Score: inf
ROOT
ATOM      1  C   UNL     1     -28.691 -10.788 145.700  1.00  0.00     0.100 A 
ATOM      2  C   UNL     1     -27.873 -11.552 145.203  1.00  0.00     0.017 A 
ATOM      3  C   UNL     1     -27.188 -12.562 145.876  1.00  0.00     0.082 C 
ATOM      4  C   UNL     1     -27.416 -11.511 143.773  1.00  0.00     0.147 A 
ATOM      5  C   UNL     1     -25.888 -12.970 145.700  1.00  0.00     0.023 A 
ATOM      6  N   UNL     1     -29.335  -9.748 144.873  1.00  0.00    -0.309 N 
ATOM      7  C   UNL     1     -30.329  -8.989 145.215  1.00  0.00     0.095 A 
ATOM      8  C   UNL     1     -28.802  -9.740 143.629  1.00  0.00     0.137 A 
ATOM      9  C   UNL     1     -25.361 -12.503 144.417  1.00  0.00     0.163 A 
ATOM     10  N   UNL     1     -27.958 -10.582 142.987  1.00  0.00    -0.262 N 
ATOM     11  C   UNL     1     -29.334  -8.878 142.621  1.00  0.00     0.086 A 
ATOM     12  C   UNL     1     -28.971  -8.932 141.308  1.00  0.00     0.156 A 
ATOM     13  C   UNL     1     -27.549 -10.561 141.688  1.00  0.00     0.146 A 
ATOM     14  C   UNL     1     -30.430  -7.767 142.956  1.00  0.00     0.083 A 
ATOM     15  N   UNL     1     -28.187  -9.788 140.903  1.00  0.00    -0.268 N 
ATOM     16  C   UNL     1     -27.924 -10.019 139.454  1.00  0.00     0.207 A 
ATOM     17  C   UNL     1     -30.802  -8.012 144.327  1.00  0.00     0.048 A 
ATOM     18  C   UNL     1     -25.250 -14.140 146.251  1.00  0.00     0.051 A 
ATOM     19  N   UNL     1     -24.045 -12.914 144.031  1.00  0.00    -0.193 NA
ATOM     20  C   UNL     1     -23.382 -13.739 144.835  1.00  0.00     0.222 A 
ATOM     21  N   UNL     1     -26.089 -11.965 143.431  1.00  0.00    -0.210 NA
ATOM     22  N   UNL     1     -30.732  -6.845 142.153  1.00  0.00    -0.211 NA
ATOM     23  C   UNL     1     -30.176  -7.046 140.801  1.00  0.00     0.244 A 
ATOM     24  N   UNL     1     -29.399  -7.954 140.407  1.00  0.00    -0.193 NA
ATOM     25  N   UNL     1     -23.908 -14.413 145.905  1.00  0.00    -0.218 NA
ATOM     26  N   UNL     1     -30.538  -6.008 139.967  1.00  0.00    -0.265 NA
ATOM     27  N   UNL     1     -27.333 -11.118 139.237  1.00  0.00    -0.242 NA
ATOM     28  C   UNL     1     -27.030 -11.656 140.679  1.00  0.00     0.159 A 
ATOM     29  H   UNL     1       0.000   0.000   0.000  1.00  0.00     0.191 HD
ENDROOT
BRANCH  18  30
ATOM     30  C   UNL     1     -25.845 -14.794 147.351  1.00  0.00     0.053 C 
ATOM     31  C   UNL     1     -25.153 -16.134 147.493  1.00  0.00     0.011 C 
ENDBRANCH  18  30
BRANCH  20  32
ATOM     32  N   UNL     1     -22.143 -14.030 144.498  1.00  0.00    -0.368 N 
ATOM     33  H   UNL     1       0.000   0.000   0.000  1.00  0.00     0.159 HD
ATOM     34  H   UNL     1       0.000   0.000   0.000  1.00  0.00     0.159 HD
ENDBRANCH  20  32
TORSDOF 2
