REMARK SMILES O=c1ncc2nccc3n2c1=NN(O)C=3
REMARK SMILES IDX 3 1 2 2 11 3 10 4 5 5 9 6 12 7 15 8 8 9 13 10 4 11 6 12 1 13
REMARK SMILES IDX 7 14 14 15
REMARK H PARENT 14 16
REMARK Flexibility Score: inf
ROOT
ATOM      1  N   UNL     1     -30.319  -6.688 140.892  1.00  0.00    -0.211 NA
ATOM      2  C   UNL     1     -30.919  -7.114 141.940  1.00  0.00     0.315 A 
ATOM      3  C   UNL     1     -30.302  -8.262 142.550  1.00  0.00     0.229 A 
ATOM      4  N   UNL     1     -29.204  -8.742 141.874  1.00  0.00    -0.270 N 
ATOM      5  C   UNL     1     -28.986  -8.230 140.687  1.00  0.00     0.157 A 
ATOM      6  C   UNL     1     -28.450  -9.748 142.427  1.00  0.00     0.072 A 
ATOM      7  N   UNL     1     -30.689  -8.737 143.687  1.00  0.00    -0.122 NA
ATOM      8  C   UNL     1     -28.858 -10.116 143.798  1.00  0.00     0.167 C 
ATOM      9  C   UNL     1     -27.357 -10.357 141.796  1.00  0.00     0.048 A 
ATOM     10  N   UNL     1     -29.933  -9.508 144.451  1.00  0.00    -0.145 N 
ATOM     11  C   UNL     1     -29.303  -7.202 140.348  1.00  0.00     0.163 A 
ATOM     12  N   UNL     1     -27.979  -8.968 139.851  1.00  0.00    -0.237 NA
ATOM     13  O   UNL     1     -31.942  -6.470 142.422  1.00  0.00    -0.263 OA
ATOM     14  C   UNL     1     -27.311 -10.005 140.396  1.00  0.00     0.116 A 
ENDROOT
BRANCH  10  15
ATOM     15  O   UNL     1     -30.291  -9.944 145.717  1.00  0.00    -0.268 OA
ATOM     16  H   UNL     1       0.000   0.000   0.000  1.00  0.00     0.248 HD
ENDBRANCH  10  15
TORSDOF 1
