REMARK SMILES O=c1cc2nc3c4c(cc(=O)n3c3ncn(O)c(c1)c23)C=C(c1ccccc1O)CN=4
REMARK SMILES IDX 11 1 10 2 12 3 13 4 9 5 20 6 6 7 14 8 15 9 8 10 4 11 18 12
REMARK SMILES IDX 7 13 21 14 31 15 3 16 22 17 2 18 30 19 16 20 19 21 5 22 1 23
REMARK SMILES IDX 23 24 28 25 24 26 27 27 25 28 26 29 29 30 17 32
REMARK H PARENT 29 31 17 33
REMARK Flexibility Score: inf
ROOT
ATOM      1  O   UNL     1     -29.674 -10.382 145.560  1.00  0.00    -0.269 OA
ATOM      2  C   UNL     1     -28.706 -11.057 145.014  1.00  0.00     0.258 A 
ATOM      3  N   UNL     1     -28.325 -10.682 143.694  1.00  0.00    -0.242 N 
ATOM      4  C   UNL     1     -29.197  -9.822 142.966  1.00  0.00     0.154 A 
ATOM      5  C   UNL     1     -28.051 -12.061 145.673  1.00  0.00     0.082 A 
ATOM      6  C   UNL     1     -28.759  -9.581 141.621  1.00  0.00     0.071 A 
ATOM      7  C   UNL     1     -27.444 -11.438 142.997  1.00  0.00     0.168 A 
ATOM      8  N   UNL     1     -30.082  -8.817 143.487  1.00  0.00    -0.216 NA
ATOM      9  C   UNL     1     -30.671  -7.880 142.778  1.00  0.00     0.242 A 
ATOM     10  C   UNL     1     -26.950 -12.735 144.991  1.00  0.00     0.009 A 
ATOM     11  C   UNL     1     -28.022 -10.557 140.976  1.00  0.00     0.083 A 
ATOM     12  C   UNL     1     -29.330  -8.475 140.891  1.00  0.00     0.098 A 
ATOM     13  C   UNL     1     -26.510 -12.285 143.715  1.00  0.00     0.109 A 
ATOM     14  C   UNL     1     -26.158 -13.726 145.725  1.00  0.00     0.017 C 
ATOM     15  N   UNL     1     -25.654 -13.215 143.149  1.00  0.00    -0.276 NA
ATOM     16  C   UNL     1     -27.739 -10.525 139.565  1.00  0.00     0.081 A 
ATOM     17  C   UNL     1     -25.096 -14.256 145.131  1.00  0.00    -0.015 C 
ATOM     18  C   UNL     1     -28.156  -9.564 138.831  1.00  0.00     0.183 A 
ATOM     19  C   UNL     1     -24.820 -13.988 143.843  1.00  0.00     0.179 C 
ATOM     20  N   UNL     1     -30.163  -7.516 141.394  1.00  0.00    -0.175 N 
ATOM     21  C   UNL     1     -28.946  -8.480 139.497  1.00  0.00     0.082 A 
ATOM     22  N   UNL     1     -27.428 -11.536 141.667  1.00  0.00    -0.227 NA
ATOM     23  O   UNL     1     -27.877  -9.379 137.574  1.00  0.00    -0.290 OA
ENDROOT
BRANCH  17  24
ATOM     24  C   UNL     1     -24.450 -15.250 146.027  1.00  0.00     0.021 A 
ATOM     25  C   UNL     1     -24.140 -16.458 145.570  1.00  0.00     0.123 A 
ATOM     26  C   UNL     1     -24.069 -14.865 147.309  1.00  0.00     0.012 A 
ATOM     27  C   UNL     1     -23.783 -17.571 146.386  1.00  0.00     0.047 A 
ATOM     28  C   UNL     1     -23.619 -15.902 148.093  1.00  0.00     0.001 A 
ATOM     29  C   UNL     1     -23.512 -17.210 147.663  1.00  0.00     0.004 A 
BRANCH  25  30
ATOM     30  O   UNL     1     -24.343 -16.833 144.200  1.00  0.00    -0.507 OA
ATOM     31  H   UNL     1       0.000   0.000   0.000  1.00  0.00     0.293 HD
ENDBRANCH  25  30
ENDBRANCH  17  24
BRANCH  20  32
ATOM     32  O   UNL     1     -30.493  -6.300 140.911  1.00  0.00    -0.427 OA
ATOM     33  H   UNL     1       0.000   0.000   0.000  1.00  0.00     0.327 HD
ENDBRANCH  20  32
TORSDOF 3
