REMARK SMILES NCc1ccnc2c1CC1=Cn3ccc4nc(=O)nc5c-4c3n(c3n5C=NC=C=3)C1=N2
REMARK SMILES IDX 2 1 3 2 11 3 10 4 12 5 9 6 30 7 13 8 22 9 8 10 23 11 31 12
REMARK SMILES IDX 14 13 21 14 7 15 24 16 15 17 20 18 6 19 4 20 25 21 29 22
REMARK SMILES IDX 16 23 19 24 5 25 26 26 28 27 17 28 27 29 18 30 1 31
REMARK H PARENT 1 32 1 33
REMARK Flexibility Score: inf
ROOT
ATOM      1  C   UNL     1     -25.845 -14.794 147.351  1.00  0.00     0.114 C 
ENDROOT
BRANCH   1   2
ATOM      2  C   UNL     1     -25.250 -14.140 146.251  1.00  0.00    -0.026 A 
ATOM      3  C   UNL     1     -28.691 -10.788 145.700  1.00  0.00     0.100 C 
ATOM      4  C   UNL     1     -27.873 -11.552 145.203  1.00  0.00     0.017 C 
ATOM      5  N   UNL     1     -29.335  -9.748 144.873  1.00  0.00    -0.308 N 
ATOM      6  C   UNL     1     -27.188 -12.562 145.876  1.00  0.00     0.080 C 
ATOM      7  C   UNL     1     -27.416 -11.511 143.773  1.00  0.00     0.147 C 
ATOM      8  C   UNL     1     -30.329  -8.989 145.215  1.00  0.00     0.095 A 
ATOM      9  C   UNL     1     -28.802  -9.740 143.629  1.00  0.00     0.138 A 
ATOM     10  C   UNL     1     -25.888 -12.970 145.700  1.00  0.00     0.006 A 
ATOM     11  N   UNL     1     -27.958 -10.582 142.987  1.00  0.00    -0.257 N 
ATOM     12  N   UNL     1     -26.089 -11.965 143.431  1.00  0.00    -0.210 NA
ATOM     13  C   UNL     1     -30.802  -8.012 144.327  1.00  0.00     0.048 A 
ATOM     14  C   UNL     1     -29.334  -8.878 142.621  1.00  0.00     0.086 A 
ATOM     15  C   UNL     1     -25.361 -12.503 144.417  1.00  0.00     0.158 A 
ATOM     16  C   UNL     1     -27.549 -10.561 141.688  1.00  0.00     0.173 A 
ATOM     17  C   UNL     1     -30.430  -7.767 142.956  1.00  0.00     0.085 A 
ATOM     18  C   UNL     1     -28.971  -8.932 141.308  1.00  0.00     0.159 A 
ATOM     19  N   UNL     1     -24.045 -12.914 144.031  1.00  0.00    -0.237 NA
ATOM     20  C   UNL     1     -23.913 -14.406 145.868  1.00  0.00     0.025 A 
ATOM     21  N   UNL     1     -28.187  -9.788 140.903  1.00  0.00    -0.262 N 
ATOM     22  C   UNL     1     -26.572 -11.538 141.261  1.00  0.00    -0.055 C 
ATOM     23  N   UNL     1     -30.732  -6.845 142.153  1.00  0.00    -0.191 NA
ATOM     24  N   UNL     1     -29.425  -7.927 140.374  1.00  0.00    -0.172 NA
ATOM     25  C   UNL     1     -23.382 -13.739 144.835  1.00  0.00     0.114 A 
ATOM     26  C   UNL     1     -27.924 -10.019 139.454  1.00  0.00     0.208 C 
ATOM     27  C   UNL     1     -26.648 -11.834 139.998  1.00  0.00     0.168 C 
ATOM     28  C   UNL     1     -30.176  -7.046 140.801  1.00  0.00     0.369 A 
ATOM     29  N   UNL     1     -27.321 -11.020 139.201  1.00  0.00    -0.238 NA
ATOM     30  O   UNL     1     -30.542  -6.012 139.940  1.00  0.00    -0.244 OA
ENDBRANCH   1   2
BRANCH   1  31
ATOM     31  N   UNL     1     -25.182 -16.062 147.658  1.00  0.00    -0.326 NA
ATOM     32  H   UNL     1       0.000   0.000   0.000  1.00  0.00     0.119 HD
ATOM     33  H   UNL     1       0.000   0.000   0.000  1.00  0.00     0.119 HD
ENDBRANCH   1  31
TORSDOF 2
