REMARK SMILES Cn1c(N)nc2c3c(nc4c5nc(=O)c(-c6ccccc6)cc5cc(=O)n24)=CC=C=c31
REMARK SMILES IDX 26 1 25 2 27 3 6 4 24 5 7 6 10 7 5 8 3 9 23 10 8 11 31 12
REMARK SMILES IDX 11 13 22 14 12 15 28 16 15 17 13 18 14 19 29 20 2 21 1 22
REMARK SMILES IDX 30 23 9 24 4 25 16 28 17 29 21 30 18 31 20 32 19 33
REMARK H PARENT 4 26 4 27
REMARK Flexibility Score: inf
ROOT
ATOM      1  O   UNL     1     -29.674 -10.382 145.560  1.00  0.00    -0.269 OA
ATOM      2  C   UNL     1     -28.706 -11.057 145.014  1.00  0.00     0.258 A 
ATOM      3  N   UNL     1     -28.325 -10.682 143.694  1.00  0.00    -0.242 N 
ATOM      4  C   UNL     1     -29.197  -9.822 142.966  1.00  0.00     0.157 A 
ATOM      5  C   UNL     1     -28.051 -12.061 145.673  1.00  0.00     0.082 A 
ATOM      6  C   UNL     1     -28.759  -9.581 141.621  1.00  0.00     0.076 A 
ATOM      7  C   UNL     1     -27.444 -11.438 142.997  1.00  0.00     0.168 A 
ATOM      8  N   UNL     1     -30.082  -8.817 143.487  1.00  0.00    -0.196 NA
ATOM      9  C   UNL     1     -30.671  -7.880 142.778  1.00  0.00     0.202 A 
ATOM     10  C   UNL     1     -26.950 -12.735 144.991  1.00  0.00     0.010 A 
ATOM     11  C   UNL     1     -28.022 -10.557 140.976  1.00  0.00     0.080 A 
ATOM     12  C   UNL     1     -29.330  -8.475 140.891  1.00  0.00     0.100 A 
ATOM     13  C   UNL     1     -26.510 -12.285 143.715  1.00  0.00     0.118 A 
ATOM     14  C   UNL     1     -26.158 -13.726 145.725  1.00  0.00     0.025 A 
ATOM     15  N   UNL     1     -25.654 -13.215 143.149  1.00  0.00    -0.205 NA
ATOM     16  C   UNL     1     -27.739 -10.525 139.565  1.00  0.00     0.038 C 
ATOM     17  C   UNL     1     -25.096 -14.256 145.131  1.00  0.00     0.050 A 
ATOM     18  C   UNL     1     -24.849 -13.968 143.823  1.00  0.00     0.278 A 
ATOM     19  O   UNL     1     -23.732 -14.556 143.300  1.00  0.00    -0.267 OA
ATOM     20  C   UNL     1     -28.260  -9.403 138.841  1.00  0.00     0.056 C 
ATOM     21  N   UNL     1     -30.201  -7.609 141.439  1.00  0.00    -0.308 N 
ATOM     22  C   UNL     1     -30.637  -6.496 140.836  1.00  0.00     0.154 C 
ATOM     23  C   UNL     1     -28.910  -8.360 139.517  1.00  0.00    -0.094 C 
ATOM     24  N   UNL     1     -27.323 -11.337 141.648  1.00  0.00    -0.227 NA
ENDROOT
BRANCH   9  25
ATOM     25  N   UNL     1     -31.493  -7.017 143.269  1.00  0.00    -0.369 N 
ATOM     26  H   UNL     1       0.000   0.000   0.000  1.00  0.00     0.159 HD
ATOM     27  H   UNL     1       0.000   0.000   0.000  1.00  0.00     0.159 HD
ENDBRANCH   9  25
BRANCH  17  28
ATOM     28  C   UNL     1     -24.445 -15.249 146.015  1.00  0.00    -0.013 A 
ATOM     29  C   UNL     1     -24.381 -16.550 145.682  1.00  0.00     0.009 A 
ATOM     30  C   UNL     1     -24.340 -14.856 147.339  1.00  0.00     0.009 A 
ATOM     31  C   UNL     1     -24.214 -17.529 146.631  1.00  0.00     0.001 A 
ATOM     32  C   UNL     1     -24.193 -16.003 148.213  1.00  0.00     0.001 A 
ATOM     33  C   UNL     1     -24.141 -17.196 147.957  1.00  0.00     0.000 A 
ENDBRANCH  17  28
TORSDOF 2
