REMARK SMILES Nc1nc2c3c(cc4c5nc(=O)c(-c6ccccc6)cc5cc(=O)n42)=C[C@H](O)C=c3[nH]1
REMARK SMILES IDX 24 1 23 2 25 3 4 4 22 5 5 6 8 7 3 8 2 9 21 10 6 11 30 12
REMARK SMILES IDX 9 13 20 14 10 15 26 16 13 17 11 18 12 19 27 20 31 21 29 22
REMARK SMILES IDX 7 23 1 25 14 28 15 29 19 30 16 31 18 32 17 33 28 34
REMARK H PARENT 31 24 1 26 1 27 28 35
REMARK Flexibility Score: inf
ROOT
ATOM      1  O   UNL     1     -29.674 -10.382 145.560  1.00  0.00    -0.269 OA
ATOM      2  C   UNL     1     -28.706 -11.057 145.014  1.00  0.00     0.257 A 
ATOM      3  N   UNL     1     -28.325 -10.682 143.694  1.00  0.00    -0.258 N 
ATOM      4  C   UNL     1     -29.197  -9.822 142.966  1.00  0.00     0.154 A 
ATOM      5  C   UNL     1     -28.051 -12.061 145.673  1.00  0.00     0.082 A 
ATOM      6  C   UNL     1     -28.759  -9.581 141.621  1.00  0.00     0.048 A 
ATOM      7  C   UNL     1     -27.444 -11.438 142.997  1.00  0.00     0.078 A 
ATOM      8  N   UNL     1     -30.082  -8.817 143.487  1.00  0.00    -0.196 NA
ATOM      9  C   UNL     1     -30.671  -7.880 142.778  1.00  0.00     0.199 A 
ATOM     10  C   UNL     1     -26.950 -12.735 144.991  1.00  0.00     0.009 A 
ATOM     11  C   UNL     1     -28.022 -10.557 140.976  1.00  0.00    -0.012 A 
ATOM     12  C   UNL     1     -29.330  -8.475 140.891  1.00  0.00     0.051 A 
ATOM     13  C   UNL     1     -26.510 -12.285 143.715  1.00  0.00     0.099 A 
ATOM     14  C   UNL     1     -26.158 -13.726 145.725  1.00  0.00     0.025 A 
ATOM     15  N   UNL     1     -25.654 -13.215 143.149  1.00  0.00    -0.207 NA
ATOM     16  C   UNL     1     -27.739 -10.525 139.565  1.00  0.00     0.017 C 
ATOM     17  C   UNL     1     -25.096 -14.256 145.131  1.00  0.00     0.050 A 
ATOM     18  C   UNL     1     -24.849 -13.968 143.823  1.00  0.00     0.278 A 
ATOM     19  O   UNL     1     -23.732 -14.556 143.300  1.00  0.00    -0.267 OA
ATOM     20  C   UNL     1     -28.260  -9.403 138.841  1.00  0.00     0.163 C 
ATOM     21  N   UNL     1     -30.201  -7.609 141.439  1.00  0.00    -0.326 N 
ATOM     22  C   UNL     1     -28.996  -8.413 139.515  1.00  0.00     0.035 C 
ATOM     23  C   UNL     1     -27.255 -11.527 141.622  1.00  0.00     0.037 A 
ATOM     24  H   UNL     1       0.000   0.000   0.000  1.00  0.00     0.170 HD
ENDROOT
BRANCH   9  25
ATOM     25  N   UNL     1     -31.493  -7.017 143.269  1.00  0.00    -0.369 N 
ATOM     26  H   UNL     1       0.000   0.000   0.000  1.00  0.00     0.159 HD
ATOM     27  H   UNL     1       0.000   0.000   0.000  1.00  0.00     0.159 HD
ENDBRANCH   9  25
BRANCH  17  28
ATOM     28  C   UNL     1     -24.445 -15.249 146.015  1.00  0.00    -0.013 A 
ATOM     29  C   UNL     1     -24.381 -16.550 145.682  1.00  0.00     0.009 A 
ATOM     30  C   UNL     1     -24.340 -14.856 147.339  1.00  0.00     0.009 A 
ATOM     31  C   UNL     1     -24.214 -17.529 146.631  1.00  0.00     0.001 A 
ATOM     32  C   UNL     1     -23.988 -15.840 148.302  1.00  0.00     0.001 A 
ATOM     33  C   UNL     1     -24.041 -17.168 147.987  1.00  0.00     0.000 A 
ENDBRANCH  17  28
BRANCH  20  34
ATOM     34  O   UNL     1     -27.984  -9.239 137.572  1.00  0.00    -0.385 OA
ATOM     35  H   UNL     1       0.000   0.000   0.000  1.00  0.00     0.211 HD
ENDBRANCH  20  34
TORSDOF 3
