REMARK SMILES Oc1ccccc1C1=CC2=Cn3nc4ncnc5c4c3C3=C(NC(=C1)[C@H]23)C1=NC=C[C@H]15
REMARK SMILES IDX 11 1 10 2 12 3 9 4 13 5 14 6 15 7 26 8 24 9 8 10 20 11 21 12
REMARK SMILES IDX 25 13 16 14 17 15 22 16 23 17 19 18 18 19 7 22 6 23 2 24
REMARK SMILES IDX 5 25 3 26 4 27 1 28 31 30 27 31 30 32 28 33 29 35
REMARK H PARENT 23 20 1 29
REMARK Flexibility Score: 60.00
ROOT
ATOM      1  C   UNL     1     -28.691 -10.788 145.700  1.00  0.00     0.118 C 
ATOM      2  C   UNL     1     -27.873 -11.552 145.203  1.00  0.00    -0.015 C 
ATOM      3  N   UNL     1     -29.341  -9.813 144.846  1.00  0.00    -0.237 N 
ATOM      4  C   UNL     1     -27.133 -12.569 145.920  1.00  0.00     0.015 C 
ATOM      5  N   UNL     1     -30.295  -8.961 145.048  1.00  0.00    -0.147 NA
ATOM      6  C   UNL     1     -30.666  -8.287 144.002  1.00  0.00     0.185 A 
ATOM      7  N   UNL     1     -31.507  -7.441 143.743  1.00  0.00    -0.215 NA
ATOM      8  C   UNL     1     -27.488 -11.361 143.817  1.00  0.00     0.102 C 
ATOM      9  C   UNL     1     -26.671 -12.024 143.064  1.00  0.00     0.028 C 
ATOM     10  C   UNL     1     -26.174 -13.412 145.297  1.00  0.00    -0.013 C 
ATOM     11  C   UNL     1     -28.952  -9.836 143.462  1.00  0.00     0.084 A 
ATOM     12  C   UNL     1     -28.008 -10.624 142.859  1.00  0.00     0.017 C 
ATOM     13  C   UNL     1     -25.923 -13.146 143.850  1.00  0.00     0.031 C 
ATOM     14  C   UNL     1     -31.461  -7.020 142.395  1.00  0.00     0.224 A 
ATOM     15  N   UNL     1     -30.472  -7.393 141.479  1.00  0.00    -0.239 NA
ATOM     16  C   UNL     1     -27.612 -10.709 141.616  1.00  0.00     0.068 CG0
ATOM     17  N   UNL     1     -26.631 -11.746 141.654  1.00  0.00    -0.356 N 
ATOM     18  C   UNL     1     -29.782  -8.722 142.905  1.00  0.00     0.070 A 
ATOM     19  C   UNL     1     -29.617  -8.213 141.674  1.00  0.00     0.068 A 
ATOM     20  H   UNL     1       0.000   0.000   0.000  1.00  0.00     0.166 HD
ATOM     21  G   UNL     1     -27.976 -10.046 140.405  1.00  0.00     0.000 G0
ENDROOT
BRANCH  10  22
ATOM     22  C   UNL     1     -25.470 -14.459 145.962  1.00  0.00     0.024 A 
ATOM     23  C   UNL     1     -26.151 -15.293 146.754  1.00  0.00     0.012 A 
ATOM     24  C   UNL     1     -24.073 -14.510 145.840  1.00  0.00     0.123 A 
ATOM     25  C   UNL     1     -25.382 -16.355 147.388  1.00  0.00     0.001 A 
ATOM     26  C   UNL     1     -23.356 -15.507 146.361  1.00  0.00     0.047 A 
ATOM     27  C   UNL     1     -24.029 -16.461 147.176  1.00  0.00     0.004 A 
BRANCH  24  28
ATOM     28  O   UNL     1     -23.393 -13.563 144.978  1.00  0.00    -0.507 OA
ATOM     29  H   UNL     1       0.000   0.000   0.000  1.00  0.00     0.293 HD
ENDBRANCH  24  28
ENDBRANCH  10  22
BRANCH  19  30
ATOM     30  C   UNL     1     -28.655  -8.887 140.288  1.00  0.00     0.114 C 
ATOM     31  C   UNL     1     -27.976 -10.046 140.405  1.00  0.00     0.077 CG0
ATOM     32  C   UNL     1     -28.707  -8.557 139.005  1.00  0.00     0.009 C 
ATOM     33  N   UNL     1     -27.500 -10.494 139.241  1.00  0.00    -0.258 NA
ATOM     34  G   UNL     1     -27.612 -10.709 141.616  1.00  0.00     0.000 G0
ATOM     35  C   UNL     1     -27.958  -9.650 138.297  1.00  0.00     0.108 C 
ENDBRANCH  19  30
TORSDOF 2
