REMARK SMILES CCc1nc(N)nc2c1Cc1cn3ccc4nc(=N)nc5c4c3n(c1=C2)c(=O)n5C
REMARK SMILES IDX 12 1 11 2 10 3 25 4 9 5 13 6 14 7 23 8 8 9 24 10 22 11 21 12
REMARK SMILES IDX 27 13 16 14 29 15 30 16 15 17 3 18 7 19 5 20 17 21 20 22
REMARK SMILES IDX 18 23 26 24 28 25 4 26 19 27 2 29 1 30 6 31
REMARK H PARENT 19 28 6 32 6 33
REMARK Flexibility Score: inf
ROOT
ATOM      1  C   UNL     1     -28.691 -10.788 145.700  1.00  0.00     0.099 A 
ATOM      2  C   UNL     1     -27.873 -11.552 145.203  1.00  0.00    -0.002 A 
ATOM      3  C   UNL     1     -27.188 -12.562 145.876  1.00  0.00     0.079 C 
ATOM      4  C   UNL     1     -27.416 -11.511 143.773  1.00  0.00     0.059 A 
ATOM      5  C   UNL     1     -25.888 -12.970 145.700  1.00  0.00     0.004 A 
ATOM      6  N   UNL     1     -29.335  -9.748 144.873  1.00  0.00    -0.309 N 
ATOM      7  C   UNL     1     -30.329  -8.989 145.215  1.00  0.00     0.095 A 
ATOM      8  C   UNL     1     -28.802  -9.740 143.629  1.00  0.00     0.138 A 
ATOM      9  C   UNL     1     -25.361 -12.503 144.417  1.00  0.00     0.074 A 
ATOM     10  N   UNL     1     -27.958 -10.582 142.987  1.00  0.00    -0.246 N 
ATOM     11  C   UNL     1     -29.334  -8.878 142.621  1.00  0.00     0.086 A 
ATOM     12  C   UNL     1     -28.971  -8.932 141.308  1.00  0.00     0.153 A 
ATOM     13  C   UNL     1     -27.549 -10.561 141.688  1.00  0.00     0.335 A 
ATOM     14  C   UNL     1     -30.430  -7.767 142.956  1.00  0.00     0.083 A 
ATOM     15  N   UNL     1     -28.187  -9.788 140.903  1.00  0.00    -0.280 N 
ATOM     16  C   UNL     1     -27.924 -10.019 139.454  1.00  0.00     0.157 C 
ATOM     17  C   UNL     1     -30.802  -8.012 144.327  1.00  0.00     0.048 A 
ATOM     18  C   UNL     1     -25.250 -14.140 146.251  1.00  0.00     0.050 A 
ATOM     19  N   UNL     1     -24.045 -12.914 144.031  1.00  0.00    -0.213 NA
ATOM     20  C   UNL     1     -23.382 -13.739 144.835  1.00  0.00     0.220 A 
ATOM     21  N   UNL     1     -30.755  -6.930 142.133  1.00  0.00    -0.211 NA
ATOM     22  N   UNL     1     -29.454  -7.954 140.392  1.00  0.00    -0.193 NA
ATOM     23  C   UNL     1     -30.273  -6.880 140.849  1.00  0.00     0.244 A 
ATOM     24  C   UNL     1     -26.360 -12.282 143.296  1.00  0.00     0.056 C 
ATOM     25  O   UNL     1     -26.783 -11.511 141.076  1.00  0.00    -0.247 OA
ATOM     26  N   UNL     1     -23.903 -14.405 145.895  1.00  0.00    -0.218 NA
ATOM     27  N   UNL     1     -30.658  -5.995 139.988  1.00  0.00    -0.265 NA
ATOM     28  H   UNL     1       0.000   0.000   0.000  1.00  0.00     0.191 HD
ENDROOT
BRANCH  18  29
ATOM     29  C   UNL     1     -25.845 -14.794 147.351  1.00  0.00     0.053 C 
ATOM     30  C   UNL     1     -25.139 -16.131 147.484  1.00  0.00     0.011 C 
ENDBRANCH  18  29
BRANCH  20  31
ATOM     31  N   UNL     1     -22.155 -14.093 144.447  1.00  0.00    -0.368 N 
ATOM     32  H   UNL     1       0.000   0.000   0.000  1.00  0.00     0.159 HD
ATOM     33  H   UNL     1       0.000   0.000   0.000  1.00  0.00     0.159 HD
ENDBRANCH  20  31
TORSDOF 2
