REMARK SMILES CN1C(=O)N2C3=Nc4nc(N)c5ccccc5c4CC3=CN3C=CC4=CC=CC1C4=C32
REMARK SMILES IDX 21 1 20 2 19 3 6 4 18 5 22 6 23 7 31 8 8 9 5 10 30 11 29 12
REMARK SMILES IDX 3 13 25 14 2 15 1 16 24 17 17 18 9 19 16 20 10 21 7 22 15 23
REMARK SMILES IDX 26 24 14 25 13 26 28 27 12 28 4 29 27 30 11 31
REMARK H PARENT 11 32 11 33
REMARK Flexibility Score: inf
ROOT
ATOM      1  C   UNL     1     -28.691 -10.788 145.700  1.00  0.00     0.100 C 
ATOM      2  C   UNL     1     -27.873 -11.552 145.203  1.00  0.00     0.017 C 
ATOM      3  C   UNL     1     -27.188 -12.562 145.876  1.00  0.00     0.081 C 
ATOM      4  C   UNL     1     -27.416 -11.511 143.773  1.00  0.00     0.150 C 
ATOM      5  C   UNL     1     -25.888 -12.970 145.700  1.00  0.00     0.009 A 
ATOM      6  N   UNL     1     -29.335  -9.748 144.873  1.00  0.00    -0.309 N 
ATOM      7  C   UNL     1     -30.329  -8.989 145.215  1.00  0.00     0.093 C 
ATOM      8  C   UNL     1     -28.802  -9.740 143.629  1.00  0.00     0.133 C 
ATOM      9  C   UNL     1     -25.361 -12.503 144.417  1.00  0.00     0.160 A 
ATOM     10  N   UNL     1     -27.958 -10.582 142.987  1.00  0.00    -0.230 N 
ATOM     11  C   UNL     1     -29.334  -8.878 142.621  1.00  0.00     0.028 C 
ATOM     12  C   UNL     1     -28.971  -8.932 141.308  1.00  0.00     0.144 C 
ATOM     13  C   UNL     1     -27.549 -10.561 141.688  1.00  0.00     0.332 C 
ATOM     14  C   UNL     1     -30.430  -7.767 142.956  1.00  0.00    -0.015 C 
ATOM     15  N   UNL     1     -28.187  -9.788 140.903  1.00  0.00    -0.316 N 
ATOM     16  C   UNL     1     -27.924 -10.019 139.454  1.00  0.00     0.149 C 
ATOM     17  C   UNL     1     -30.802  -8.012 144.327  1.00  0.00     0.027 C 
ATOM     18  C   UNL     1     -25.250 -14.140 146.251  1.00  0.00    -0.007 A 
ATOM     19  N   UNL     1     -24.045 -12.914 144.031  1.00  0.00    -0.211 NA
ATOM     20  C   UNL     1     -25.845 -14.794 147.351  1.00  0.00     0.009 A 
ATOM     21  C   UNL     1     -23.382 -13.739 144.835  1.00  0.00     0.133 A 
ATOM     22  N   UNL     1     -26.158 -12.088 143.412  1.00  0.00    -0.210 NA
ATOM     23  C   UNL     1     -25.218 -15.979 147.704  1.00  0.00     0.001 A 
ATOM     24  C   UNL     1     -30.734  -6.844 142.155  1.00  0.00     0.008 C 
ATOM     25  C   UNL     1     -24.041 -16.408 147.228  1.00  0.00     0.001 A 
ATOM     26  C   UNL     1     -23.515 -15.986 146.197  1.00  0.00     0.012 A 
ATOM     27  C   UNL     1     -29.465  -7.957 140.398  1.00  0.00     0.003 C 
ATOM     28  C   UNL     1     -24.064 -14.539 145.781  1.00  0.00     0.024 A 
ATOM     29  O   UNL     1     -26.723 -11.497 141.139  1.00  0.00    -0.247 OA
ATOM     30  C   UNL     1     -30.278  -6.871 140.745  1.00  0.00    -0.001 C 
ENDROOT
BRANCH  21  31
ATOM     31  N   UNL     1     -22.101 -13.973 144.593  1.00  0.00    -0.383 N 
ATOM     32  H   UNL     1       0.000   0.000   0.000  1.00  0.00     0.158 HD
ATOM     33  H   UNL     1       0.000   0.000   0.000  1.00  0.00     0.158 HD
ENDBRANCH  21  31
TORSDOF 1
