REMARK SMILES N=c1nc2ccn3cc4c(n5c3c2c(n1)n1cncc15)=Nc1nccc(CN)c1C4
REMARK SMILES IDX 27 1 26 2 8 3 9 4 7 5 30 6 10 7 6 8 12 9 29 10 11 11 21 12
REMARK SMILES IDX 5 13 13 14 22 15 20 16 4 17 14 18 23 19 25 20 16 21 19 22
REMARK SMILES IDX 3 23 15 24 24 25 17 26 18 27 2 28 1 29 28 31
REMARK H PARENT 1 30 28 32 28 33
REMARK Flexibility Score: inf
ROOT
ATOM      1  C   UNL     1     -25.845 -14.794 147.351  1.00  0.00     0.114 C 
ENDROOT
BRANCH   1   2
ATOM      2  C   UNL     1     -25.250 -14.140 146.251  1.00  0.00    -0.026 A 
ATOM      3  C   UNL     1     -28.691 -10.788 145.700  1.00  0.00     0.100 A 
ATOM      4  C   UNL     1     -27.873 -11.552 145.203  1.00  0.00     0.017 A 
ATOM      5  N   UNL     1     -29.335  -9.748 144.873  1.00  0.00    -0.309 N 
ATOM      6  C   UNL     1     -27.188 -12.562 145.876  1.00  0.00     0.080 C 
ATOM      7  C   UNL     1     -27.416 -11.511 143.773  1.00  0.00     0.147 A 
ATOM      8  C   UNL     1     -30.329  -8.989 145.215  1.00  0.00     0.095 A 
ATOM      9  C   UNL     1     -28.802  -9.740 143.629  1.00  0.00     0.137 A 
ATOM     10  C   UNL     1     -25.888 -12.970 145.700  1.00  0.00     0.006 A 
ATOM     11  N   UNL     1     -27.958 -10.582 142.987  1.00  0.00    -0.262 N 
ATOM     12  N   UNL     1     -26.089 -11.965 143.431  1.00  0.00    -0.210 NA
ATOM     13  C   UNL     1     -30.802  -8.012 144.327  1.00  0.00     0.048 A 
ATOM     14  C   UNL     1     -29.334  -8.878 142.621  1.00  0.00     0.086 A 
ATOM     15  C   UNL     1     -25.361 -12.503 144.417  1.00  0.00     0.158 A 
ATOM     16  C   UNL     1     -27.549 -10.561 141.688  1.00  0.00     0.146 A 
ATOM     17  C   UNL     1     -30.430  -7.767 142.956  1.00  0.00     0.083 A 
ATOM     18  C   UNL     1     -28.971  -8.932 141.308  1.00  0.00     0.156 A 
ATOM     19  N   UNL     1     -24.045 -12.914 144.031  1.00  0.00    -0.237 NA
ATOM     20  C   UNL     1     -23.913 -14.406 145.868  1.00  0.00     0.025 A 
ATOM     21  N   UNL     1     -28.187  -9.788 140.903  1.00  0.00    -0.268 N 
ATOM     22  C   UNL     1     -27.017 -11.636 140.571  1.00  0.00     0.159 A 
ATOM     23  N   UNL     1     -30.732  -6.845 142.153  1.00  0.00    -0.211 NA
ATOM     24  N   UNL     1     -29.425  -7.927 140.374  1.00  0.00    -0.193 NA
ATOM     25  C   UNL     1     -23.382 -13.739 144.835  1.00  0.00     0.114 A 
ATOM     26  C   UNL     1     -27.924 -10.019 139.454  1.00  0.00     0.207 A 
ATOM     27  N   UNL     1     -27.321 -11.020 139.201  1.00  0.00    -0.242 NA
ATOM     28  C   UNL     1     -30.176  -7.046 140.801  1.00  0.00     0.244 A 
ATOM     29  N   UNL     1     -30.519  -6.084 140.041  1.00  0.00    -0.265 NA
ATOM     30  H   UNL     1       0.000   0.000   0.000  1.00  0.00     0.191 HD
ENDBRANCH   1   2
BRANCH   1  31
ATOM     31  N   UNL     1     -25.182 -16.062 147.658  1.00  0.00    -0.326 NA
ATOM     32  H   UNL     1       0.000   0.000   0.000  1.00  0.00     0.119 HD
ATOM     33  H   UNL     1       0.000   0.000   0.000  1.00  0.00     0.119 HD
ENDBRANCH   1  31
TORSDOF 2
