REMARK SMILES N=c1nc2ccn3c4c-2c(n1)N1C=NC=N[C@@H]1N4C1=NC(N)=C(C2C=CC=C2)CC1=C3
REMARK SMILES IDX 31 1 30 2 29 3 19 4 23 5 7 6 6 7 8 8 21 9 18 10 9 11 10 12
REMARK SMILES IDX 17 13 4 14 12 15 13 16 5 17 3 18 20 19 11 20 2 21 1 22 14 23
REMARK SMILES IDX 16 24 15 25 24 27 25 28 28 29 26 30 27 31 22 32
REMARK H PARENT 1 26 22 33 22 34
REMARK Flexibility Score: inf
ROOT
ATOM      1  C   UNL     1     -28.691 -10.788 145.700  1.00  0.00     0.100 C 
ATOM      2  C   UNL     1     -27.873 -11.552 145.203  1.00  0.00     0.016 C 
ATOM      3  C   UNL     1     -27.188 -12.562 145.876  1.00  0.00     0.076 C 
ATOM      4  C   UNL     1     -27.416 -11.511 143.773  1.00  0.00     0.144 C 
ATOM      5  C   UNL     1     -25.888 -12.970 145.700  1.00  0.00    -0.013 C 
ATOM      6  N   UNL     1     -29.335  -9.748 144.873  1.00  0.00    -0.309 N 
ATOM      7  C   UNL     1     -30.329  -8.989 145.215  1.00  0.00     0.095 A 
ATOM      8  C   UNL     1     -28.802  -9.740 143.629  1.00  0.00     0.135 A 
ATOM      9  C   UNL     1     -25.361 -12.503 144.417  1.00  0.00     0.126 C 
ATOM     10  N   UNL     1     -27.958 -10.582 142.987  1.00  0.00    -0.269 N 
ATOM     11  C   UNL     1     -29.334  -8.878 142.621  1.00  0.00     0.085 A 
ATOM     12  C   UNL     1     -28.971  -8.932 141.308  1.00  0.00     0.154 A 
ATOM     13  C   UNL     1     -27.549 -10.561 141.688  1.00  0.00     0.319 C 
ATOM     14  C   UNL     1     -30.430  -7.767 142.956  1.00  0.00     0.083 A 
ATOM     15  N   UNL     1     -28.187  -9.788 140.903  1.00  0.00    -0.275 N 
ATOM     16  C   UNL     1     -27.924 -10.019 139.454  1.00  0.00     0.206 C 
ATOM     17  C   UNL     1     -30.802  -8.012 144.327  1.00  0.00     0.048 A 
ATOM     18  N   UNL     1     -30.718  -7.057 142.079  1.00  0.00    -0.211 NA
ATOM     19  N   UNL     1     -26.007 -11.745 143.584  1.00  0.00    -0.214 NA
ATOM     20  N   UNL     1     -29.690  -7.846 140.588  1.00  0.00    -0.193 NA
ATOM     21  C   UNL     1     -30.354  -6.896 140.932  1.00  0.00     0.244 A 
ATOM     22  N   UNL     1     -30.796  -5.973 140.049  1.00  0.00    -0.265 NA
ATOM     23  N   UNL     1     -27.086 -11.099 139.205  1.00  0.00    -0.227 NA
ATOM     24  N   UNL     1     -26.738 -11.611 141.055  1.00  0.00    -0.227 NA
ATOM     25  C   UNL     1     -26.561 -11.828 139.882  1.00  0.00     0.222 C 
ATOM     26  H   UNL     1       0.000   0.000   0.000  1.00  0.00     0.191 HD
ENDROOT
BRANCH   5  27
ATOM     27  C   UNL     1     -25.250 -14.140 146.251  1.00  0.00     0.064 C 
ATOM     28  C   UNL     1     -25.845 -14.794 147.351  1.00  0.00    -0.015 C 
ATOM     29  C   UNL     1     -24.041 -14.779 145.813  1.00  0.00    -0.015 C 
ATOM     30  C   UNL     1     -25.216 -16.061 147.476  1.00  0.00    -0.004 C 
ATOM     31  C   UNL     1     -24.028 -16.196 146.868  1.00  0.00    -0.004 C 
ENDBRANCH   5  27
BRANCH   9  32
ATOM     32  N   UNL     1     -24.045 -12.914 144.031  1.00  0.00    -0.384 N 
ATOM     33  H   UNL     1       0.000   0.000   0.000  1.00  0.00     0.158 HD
ATOM     34  H   UNL     1       0.000   0.000   0.000  1.00  0.00     0.158 HD
ENDBRANCH   9  32
TORSDOF 2
