REMARK SMILES N=c1nc2ncn3cc4c(n5c6[nH]c(=O)ncc6c(n1)c2c35)=Cc1nc(N)ccc1C4
REMARK SMILES IDX 8 1 9 2 31 3 10 4 30 5 7 6 6 7 22 8 24 9 11 10 12 11 18 12
REMARK SMILES IDX 19 13 13 14 25 15 14 16 21 17 5 18 20 19 26 20 16 21 4 22
REMARK SMILES IDX 3 23 29 24 2 25 17 26 23 27 1 28 15 29 28 30 27 33
REMARK H PARENT 13 31 1 32 27 34 27 35
REMARK Flexibility Score: inf
ROOT
ATOM      1  C   UNL     1     -28.691 -10.788 145.700  1.00  0.00     0.100 A 
ATOM      2  C   UNL     1     -27.873 -11.552 145.203  1.00  0.00    -0.003 A 
ATOM      3  C   UNL     1     -27.188 -12.562 145.876  1.00  0.00     0.077 C 
ATOM      4  C   UNL     1     -27.416 -11.511 143.773  1.00  0.00     0.056 A 
ATOM      5  C   UNL     1     -25.888 -12.970 145.700  1.00  0.00    -0.017 A 
ATOM      6  N   UNL     1     -29.335  -9.748 144.873  1.00  0.00    -0.292 N 
ATOM      7  C   UNL     1     -30.329  -8.989 145.215  1.00  0.00     0.208 A 
ATOM      8  C   UNL     1     -28.802  -9.740 143.629  1.00  0.00     0.137 A 
ATOM      9  C   UNL     1     -25.361 -12.503 144.417  1.00  0.00     0.071 A 
ATOM     10  N   UNL     1     -27.958 -10.582 142.987  1.00  0.00    -0.280 N 
ATOM     11  C   UNL     1     -27.842 -10.529 141.621  1.00  0.00     0.131 A 
ATOM     12  C   UNL     1     -28.471  -9.726 140.836  1.00  0.00     0.061 A 
ATOM     13  C   UNL     1     -29.332  -8.761 141.426  1.00  0.00     0.094 A 
ATOM     14  N   UNL     1     -26.830 -11.421 141.059  1.00  0.00    -0.291 N 
ATOM     15  N   UNL     1     -24.047 -12.982 144.029  1.00  0.00    -0.232 NA
ATOM     16  C   UNL     1     -26.722 -11.566 139.747  1.00  0.00     0.346 A 
ATOM     17  C   UNL     1     -29.593  -8.821 142.778  1.00  0.00     0.088 A 
ATOM     18  N   UNL     1     -30.926  -8.133 144.363  1.00  0.00    -0.218 NA
ATOM     19  N   UNL     1     -30.145  -7.669 140.905  1.00  0.00    -0.210 NA
ATOM     20  C   UNL     1     -23.423 -13.691 144.855  1.00  0.00     0.124 A 
ATOM     21  N   UNL     1     -27.457 -10.716 138.935  1.00  0.00    -0.201 NA
ATOM     22  C   UNL     1     -30.540  -8.011 143.132  1.00  0.00     0.170 A 
ATOM     23  N   UNL     1     -31.030  -6.981 142.309  1.00  0.00    -0.191 NA
ATOM     24  C   UNL     1     -25.149 -13.899 146.353  1.00  0.00     0.010 A 
ATOM     25  C   UNL     1     -30.700  -6.825 141.087  1.00  0.00     0.244 A 
ATOM     26  C   UNL     1     -28.296  -9.809 139.484  1.00  0.00     0.131 A 
ATOM     27  C   UNL     1     -26.155 -12.078 143.396  1.00  0.00     0.055 C 
ATOM     28  N   UNL     1     -31.248  -5.897 140.438  1.00  0.00    -0.265 NA
ATOM     29  O   UNL     1     -25.902 -12.360 139.211  1.00  0.00    -0.246 OA
ATOM     30  C   UNL     1     -24.020 -14.305 146.009  1.00  0.00     0.047 A 
ATOM     31  H   UNL     1       0.000   0.000   0.000  1.00  0.00     0.173 HD
ATOM     32  H   UNL     1       0.000   0.000   0.000  1.00  0.00     0.191 HD
ENDROOT
BRANCH  20  33
ATOM     33  N   UNL     1     -22.151 -14.026 144.484  1.00  0.00    -0.384 N 
ATOM     34  H   UNL     1       0.000   0.000   0.000  1.00  0.00     0.158 HD
ATOM     35  H   UNL     1       0.000   0.000   0.000  1.00  0.00     0.158 HD
ENDBRANCH  20  33
TORSDOF 1
