REMARK SMILES Cn1c(=O)n2c3c(cn4ccc5cc(=O)cc1c5c42)Cc1c(ncc2ccccc12)N=3
REMARK SMILES IDX 8 1 7 2 20 3 6 4 21 5 9 6 10 7 19 8 22 9 5 10 18 11 17 12
REMARK SMILES IDX 3 13 12 14 2 15 1 16 11 17 30 18 23 19 29 20 24 21 31 22
REMARK SMILES IDX 28 23 13 24 27 25 14 26 4 27 25 28 16 29 26 30 15 31
REMARK H PARENT
REMARK Flexibility Score: inf
ROOT
ATOM      1  C   UNL     1     -28.691 -10.788 145.700  1.00  0.00     0.100 A 
ATOM      2  C   UNL     1     -27.873 -11.552 145.203  1.00  0.00     0.017 A 
ATOM      3  C   UNL     1     -27.188 -12.562 145.876  1.00  0.00     0.081 C 
ATOM      4  C   UNL     1     -27.416 -11.511 143.773  1.00  0.00     0.150 A 
ATOM      5  C   UNL     1     -25.888 -12.970 145.700  1.00  0.00     0.009 A 
ATOM      6  N   UNL     1     -29.335  -9.748 144.873  1.00  0.00    -0.309 N 
ATOM      7  C   UNL     1     -30.329  -8.989 145.215  1.00  0.00     0.093 A 
ATOM      8  C   UNL     1     -28.802  -9.740 143.629  1.00  0.00     0.137 A 
ATOM      9  C   UNL     1     -25.361 -12.503 144.417  1.00  0.00     0.158 A 
ATOM     10  N   UNL     1     -27.958 -10.582 142.987  1.00  0.00    -0.229 N 
ATOM     11  C   UNL     1     -29.334  -8.878 142.621  1.00  0.00     0.048 A 
ATOM     12  C   UNL     1     -28.971  -8.932 141.308  1.00  0.00     0.061 A 
ATOM     13  C   UNL     1     -27.549 -10.561 141.688  1.00  0.00     0.335 A 
ATOM     14  C   UNL     1     -30.430  -7.767 142.956  1.00  0.00    -0.007 A 
ATOM     15  N   UNL     1     -28.187  -9.788 140.903  1.00  0.00    -0.296 N 
ATOM     16  C   UNL     1     -27.924 -10.019 139.454  1.00  0.00     0.155 C 
ATOM     17  C   UNL     1     -30.802  -8.012 144.327  1.00  0.00     0.027 A 
ATOM     18  C   UNL     1     -25.250 -14.140 146.251  1.00  0.00    -0.010 A 
ATOM     19  N   UNL     1     -24.045 -12.914 144.031  1.00  0.00    -0.236 NA
ATOM     20  C   UNL     1     -25.845 -14.794 147.351  1.00  0.00     0.009 A 
ATOM     21  C   UNL     1     -23.382 -13.739 144.835  1.00  0.00     0.122 A 
ATOM     22  N   UNL     1     -26.158 -12.088 143.412  1.00  0.00    -0.210 NA
ATOM     23  C   UNL     1     -25.218 -15.979 147.704  1.00  0.00     0.001 A 
ATOM     24  C   UNL     1     -30.734  -6.844 142.155  1.00  0.00     0.061 A 
ATOM     25  C   UNL     1     -24.041 -16.408 147.228  1.00  0.00     0.001 A 
ATOM     26  C   UNL     1     -30.253  -6.916 140.755  1.00  0.00     0.181 A 
ATOM     27  O   UNL     1     -26.718 -11.492 141.122  1.00  0.00    -0.247 OA
ATOM     28  C   UNL     1     -23.972 -14.425 145.808  1.00  0.00     0.000 A 
ATOM     29  C   UNL     1     -29.416  -7.911 140.339  1.00  0.00     0.079 A 
ATOM     30  C   UNL     1     -23.410 -15.616 146.247  1.00  0.00     0.010 A 
ATOM     31  O   UNL     1     -30.577  -6.042 139.988  1.00  0.00    -0.290 OA
ENDROOT
TORSDOF 0
