REMARK SMILES O=C1C2=C3N(C=C[C@H]2O)C=C2Cc4c(ncc5ncccc45)N=C2N3C2=NCC=CN12
REMARK SMILES IDX 10 1 11 2 12 3 24 4 13 5 5 6 6 7 4 8 14 9 25 10 3 11 2 12
REMARK SMILES IDX 26 13 8 14 31 15 30 16 7 17 22 18 15 19 21 20 20 21 16 22
REMARK SMILES IDX 1 23 23 24 29 25 17 26 27 27 28 28 19 29 18 30 9 31
REMARK H PARENT 9 32
REMARK Flexibility Score: inf
ROOT
ATOM      1  C   UNL     1     -28.691 -10.788 145.700  1.00  0.00     0.100 C 
ATOM      2  C   UNL     1     -27.873 -11.552 145.203  1.00  0.00     0.017 C 
ATOM      3  C   UNL     1     -27.188 -12.562 145.876  1.00  0.00     0.081 C 
ATOM      4  C   UNL     1     -27.416 -11.511 143.773  1.00  0.00     0.148 C 
ATOM      5  C   UNL     1     -25.888 -12.970 145.700  1.00  0.00     0.011 A 
ATOM      6  N   UNL     1     -29.335  -9.748 144.873  1.00  0.00    -0.309 N 
ATOM      7  C   UNL     1     -30.329  -8.989 145.215  1.00  0.00     0.091 C 
ATOM      8  C   UNL     1     -28.802  -9.740 143.629  1.00  0.00     0.137 C 
ATOM      9  C   UNL     1     -25.361 -12.503 144.417  1.00  0.00     0.158 A 
ATOM     10  N   UNL     1     -27.958 -10.582 142.987  1.00  0.00    -0.248 N 
ATOM     11  C   UNL     1     -29.334  -8.878 142.621  1.00  0.00     0.092 C 
ATOM     12  C   UNL     1     -28.971  -8.932 141.308  1.00  0.00     0.267 C 
ATOM     13  C   UNL     1     -27.549 -10.561 141.688  1.00  0.00     0.219 C 
ATOM     14  C   UNL     1     -30.430  -7.767 142.956  1.00  0.00     0.178 C 
ATOM     15  N   UNL     1     -28.187  -9.788 140.903  1.00  0.00    -0.253 N 
ATOM     16  C   UNL     1     -27.924 -10.019 139.454  1.00  0.00     0.096 C 
ATOM     17  C   UNL     1     -30.802  -8.012 144.327  1.00  0.00     0.028 C 
ATOM     18  C   UNL     1     -25.250 -14.140 146.251  1.00  0.00     0.009 A 
ATOM     19  N   UNL     1     -24.045 -12.914 144.031  1.00  0.00    -0.235 NA
ATOM     20  C   UNL     1     -25.845 -14.794 147.351  1.00  0.00     0.012 A 
ATOM     21  C   UNL     1     -25.216 -16.061 147.476  1.00  0.00     0.021 A 
ATOM     22  C   UNL     1     -23.358 -13.586 144.929  1.00  0.00     0.142 A 
ATOM     23  O   UNL     1     -29.518  -7.946 140.479  1.00  0.00    -0.268 OA
ATOM     24  N   UNL     1     -26.164 -12.081 143.409  1.00  0.00    -0.210 NA
ATOM     25  C   UNL     1     -27.083 -11.095 139.132  1.00  0.00     0.015 C 
ATOM     26  C   UNL     1     -23.892 -14.243 145.998  1.00  0.00     0.089 A 
ATOM     27  N   UNL     1     -26.640 -11.586 141.250  1.00  0.00    -0.247 NA
ATOM     28  C   UNL     1     -26.416 -11.815 139.997  1.00  0.00     0.175 C 
ATOM     29  C   UNL     1     -23.906 -16.289 147.206  1.00  0.00     0.112 A 
ATOM     30  N   UNL     1     -23.285 -15.405 146.441  1.00  0.00    -0.255 NA
ENDROOT
BRANCH  14  31
ATOM     31  O   UNL     1     -30.865  -6.847 142.307  1.00  0.00    -0.384 OA
ATOM     32  H   UNL     1       0.000   0.000   0.000  1.00  0.00     0.211 HD
ENDBRANCH  14  31
TORSDOF 1
