REMARK SMILES CN1C(=O)N2C3=Nc4ncc5cc(O)ccc5c4CC3=CN3C=CC4=CC=C[C@@H]1C4=C32
REMARK SMILES IDX 21 1 20 2 19 3 6 4 18 5 22 6 23 7 31 8 8 9 5 10 30 11 29 12
REMARK SMILES IDX 3 13 25 14 2 15 1 16 24 17 17 18 9 19 16 20 10 21 7 22 15 23
REMARK SMILES IDX 26 24 13 25 27 26 4 27 28 28 11 29 12 30 14 31
REMARK H PARENT 14 32
REMARK Flexibility Score: inf
ROOT
ATOM      1  C   UNL     1     -28.691 -10.788 145.700  1.00  0.00     0.100 C 
ATOM      2  C   UNL     1     -27.873 -11.552 145.203  1.00  0.00     0.017 C 
ATOM      3  C   UNL     1     -27.188 -12.562 145.876  1.00  0.00     0.081 C 
ATOM      4  C   UNL     1     -27.416 -11.511 143.773  1.00  0.00     0.150 C 
ATOM      5  C   UNL     1     -25.888 -12.970 145.700  1.00  0.00     0.009 A 
ATOM      6  N   UNL     1     -29.335  -9.748 144.873  1.00  0.00    -0.309 N 
ATOM      7  C   UNL     1     -30.329  -8.989 145.215  1.00  0.00     0.093 C 
ATOM      8  C   UNL     1     -28.802  -9.740 143.629  1.00  0.00     0.133 C 
ATOM      9  C   UNL     1     -25.361 -12.503 144.417  1.00  0.00     0.158 A 
ATOM     10  N   UNL     1     -27.958 -10.582 142.987  1.00  0.00    -0.230 N 
ATOM     11  C   UNL     1     -29.334  -8.878 142.621  1.00  0.00     0.028 C 
ATOM     12  C   UNL     1     -28.971  -8.932 141.308  1.00  0.00     0.144 C 
ATOM     13  C   UNL     1     -27.549 -10.561 141.688  1.00  0.00     0.332 C 
ATOM     14  C   UNL     1     -30.430  -7.767 142.956  1.00  0.00    -0.015 C 
ATOM     15  N   UNL     1     -28.187  -9.788 140.903  1.00  0.00    -0.316 N 
ATOM     16  C   UNL     1     -27.924 -10.019 139.454  1.00  0.00     0.149 C 
ATOM     17  C   UNL     1     -30.802  -8.012 144.327  1.00  0.00     0.027 C 
ATOM     18  C   UNL     1     -25.250 -14.140 146.251  1.00  0.00    -0.009 A 
ATOM     19  N   UNL     1     -24.045 -12.914 144.031  1.00  0.00    -0.236 NA
ATOM     20  C   UNL     1     -25.845 -14.794 147.351  1.00  0.00     0.013 A 
ATOM     21  C   UNL     1     -23.382 -13.739 144.835  1.00  0.00     0.122 A 
ATOM     22  N   UNL     1     -26.158 -12.088 143.412  1.00  0.00    -0.210 NA
ATOM     23  C   UNL     1     -25.218 -15.979 147.704  1.00  0.00     0.047 A 
ATOM     24  C   UNL     1     -30.734  -6.844 142.155  1.00  0.00     0.008 C 
ATOM     25  C   UNL     1     -24.041 -16.408 147.228  1.00  0.00     0.116 A 
ATOM     26  C   UNL     1     -30.253  -6.916 140.755  1.00  0.00    -0.001 C 
ATOM     27  O   UNL     1     -26.718 -11.492 141.122  1.00  0.00    -0.247 OA
ATOM     28  C   UNL     1     -29.417  -7.911 140.339  1.00  0.00     0.003 C 
ATOM     29  C   UNL     1     -23.967 -14.450 145.854  1.00  0.00     0.004 A 
ATOM     30  C   UNL     1     -23.292 -15.762 146.187  1.00  0.00     0.056 A 
ENDROOT
BRANCH  25  31
ATOM     31  O   UNL     1     -23.534 -17.603 147.666  1.00  0.00    -0.508 OA
ATOM     32  H   UNL     1       0.000   0.000   0.000  1.00  0.00     0.293 HD
ENDBRANCH  25  31
TORSDOF 1
