6AZV - prepared_chainA_molecule3
                    3D
 Schrodinger Suite 2023-1.
 67 69  0  0  1  0            999 V2000
   27.9953   21.4273  -12.3394 C   0  0  0  0  0  0
   25.2132   22.7550  -21.7401 C   0  0  2  0  0  0
   27.4591   26.3225  -15.0268 C   0  0  0  0  0  0
   25.5494   26.1051  -13.3734 C   0  0  0  0  0  0
   26.3118   25.4253  -14.5245 C   0  0  0  0  0  0
   25.9693   21.4295  -21.4949 C   0  0  0  0  0  0
   25.9079   24.1086  -21.7407 C   0  0  0  0  0  0
   29.5788   22.6045  -17.9332 C   0  0  0  0  0  0
   26.8435   24.0267  -14.0878 C   0  0  0  0  0  0
   27.4008   20.8201  -13.6218 C   0  0  0  0  0  0
   32.0082   20.8911  -18.5268 C   0  0  0  0  0  0
   25.4881   23.6011  -19.1547 C   0  0  0  0  0  0
   24.5477   23.4854  -18.1289 C   0  0  0  0  0  0
   24.9468   23.2632  -16.8139 C   0  0  0  0  0  0
   26.3070   23.1919  -16.5068 C   0  0  0  0  0  0
   27.2855   23.3458  -17.5085 C   0  0  0  0  0  0
   26.8489   23.5560  -18.8286 C   0  0  0  0  0  0
   24.9842   23.7474  -20.5961 C   0  0  2  0  0  0
   28.6619   23.2813  -17.2110 N   0  0  0  0  0  0
   26.6125   22.8509  -15.0779 N   0  3  0  0  0  0
   27.6323   21.6887  -14.8834 C   0  0  0  0  0  0
   25.9396   20.3718  -13.4322 C   0  0  0  0  0  0
   25.2954   20.3795  -21.5892 O   0  5  0  0  0  0
   27.1937   21.4546  -21.2429 O   0  0  0  0  0  0
   29.3039   21.9309  -18.9279 O   0  0  0  0  0  0
   30.8314   22.7663  -17.4619 N   0  0  0  0  0  0
   31.9805   22.2090  -18.0489 C   0  0  0  0  0  0
   33.1499   20.3965  -19.1467 C   0  0  0  0  0  0
   34.2647   21.2178  -19.3024 C   0  0  0  0  0  0
   34.2496   22.5213  -18.7988 C   0  0  0  0  0  0
   33.1175   23.0104  -18.1534 C   0  0  0  0  0  0
   35.4858   20.6958  -20.0358 C   0  0  0  0  0  0
   28.0295   20.6892  -11.5369 H   0  0  0  0  0  0
   29.0161   21.7733  -12.4984 H   0  0  0  0  0  0
   27.4191   22.2720  -11.9745 H   0  0  0  0  0  0
   24.3729   22.6603  -22.4278 H   0  0  0  0  0  0
   27.9415   25.8955  -15.9067 H   0  0  0  0  0  0
   27.1037   27.3145  -15.2983 H   0  0  0  0  0  0
   28.2217   26.4600  -14.2601 H   0  0  0  0  0  0
   24.6550   25.5393  -13.1164 H   0  0  0  0  0  0
   26.1573   26.1723  -12.4706 H   0  0  0  0  0  0
   25.2249   27.1118  -13.6419 H   0  0  0  0  0  0
   25.5868   25.3448  -15.3315 H   0  0  0  0  0  0
   25.5677   24.8744  -22.4378 H   0  0  0  0  0  0
   26.9870   24.1628  -21.6036 H   0  0  0  0  0  0
   26.3292   23.6738  -13.1950 H   0  0  0  0  0  0
   27.9130   24.0426  -13.8905 H   0  0  0  0  0  0
   27.9800   19.9111  -13.7931 H   0  0  0  0  0  0
   31.1510   20.2462  -18.4136 H   0  0  0  0  0  0
   23.4938   23.5513  -18.3516 H   0  0  0  0  0  0
   24.1940   23.1435  -16.0475 H   0  0  0  0  0  0
   27.5804   23.6612  -19.6120 H   0  0  0  0  0  0
   24.0072   24.2265  -20.6433 H   0  0  0  0  0  0
   28.9452   23.6500  -16.3145 H   0  0  0  0  0  0
   25.7623   22.4374  -14.7221 H   0  0  0  0  0  0
   27.5122   21.0655  -15.7687 H   0  0  0  0  0  0
   28.6356   22.1149  -14.9153 H   0  0  0  0  0  0
   25.5569   19.8860  -14.3305 H   0  0  0  0  0  0
   25.8519   19.6546  -12.6149 H   0  0  0  0  0  0
   25.2840   21.2113  -13.2018 H   0  0  0  0  0  0
   30.9824   23.4657  -16.7495 H   0  0  0  0  0  0
   33.1589   19.3790  -19.5101 H   0  0  0  0  0  0
   35.1050   23.1659  -18.9174 H   0  0  0  0  0  0
   33.1163   24.0213  -17.7724 H   0  0  0  0  0  0
   35.8029   21.4092  -20.7954 H   0  0  0  0  0  0
   36.3124   20.5628  -19.3422 H   0  0  0  0  0  0
   35.2915   19.7463  -20.5374 H   0  0  0  0  0  0
  1 10  1  0  0  0
  1 33  1  0  0  0
  1 34  1  0  0  0
  1 35  1  0  0  0
  2  6  1  0  0  0
  2  7  1  0  0  0
  2 18  1  0  0  0
  2 36  1  0  0  0
  3  5  1  0  0  0
  3 37  1  0  0  0
  3 38  1  0  0  0
  3 39  1  0  0  0
  4  5  1  0  0  0
  4 40  1  0  0  0
  4 41  1  0  0  0
  4 42  1  0  0  0
  5  9  1  0  0  0
  5 43  1  0  0  0
  6 23  1  0  0  0
  6 24  2  0  0  0
  7 18  1  0  0  0
  7 44  1  0  0  0
  7 45  1  0  0  0
  8 19  1  0  0  0
  8 25  2  0  0  0
  8 26  1  0  0  0
  9 20  1  0  0  0
  9 46  1  0  0  0
  9 47  1  0  0  0
 10 21  1  0  0  0
 10 22  1  0  0  0
 10 48  1  0  0  0
 11 27  2  0  0  0
 11 28  1  0  0  0
 11 49  1  0  0  0
 12 13  1  0  0  0
 12 17  2  0  0  0
 12 18  1  0  0  0
 13 14  2  0  0  0
 13 50  1  0  0  0
 14 15  1  0  0  0
 14 51  1  0  0  0
 15 16  2  0  0  0
 15 20  1  0  0  0
 16 17  1  0  0  0
 16 19  1  0  0  0
 17 52  1  0  0  0
 18 53  1  0  0  0
 19 54  1  0  0  0
 20 21  1  0  0  0
 20 55  1  0  0  0
 21 56  1  0  0  0
 21 57  1  0  0  0
 22 58  1  0  0  0
 22 59  1  0  0  0
 22 60  1  0  0  0
 26 27  1  0  0  0
 26 61  1  0  0  0
 27 31  1  0  0  0
 28 29  2  0  0  0
 28 62  1  0  0  0
 29 30  1  0  0  0
 29 32  1  0  0  0
 30 31  2  0  0  0
 30 63  1  0  0  0
 31 64  1  0  0  0
 32 65  1  0  0  0
 32 66  1  0  0  0
 32 67  1  0  0  0
M  CHG  2  20   1  23  -1
M  END
> <s_m_subgroup_title>
6AZV-out->6AZV - prepared_split_by_chain->6AZV - prepared_chainA_split_by_molecule

> <s_m_subgroupid>
6AZV-out->6AZV - prepared_split_by_chain->6AZV - prepared_chainA_split_by_molecule

> <b_m_subgroup_collapsed>
0

$$$$
