3H0A - minimized_ligand
                    3D
 Structure written by MMmdl.
 53 55  0  0  1  0            999 V2000
   57.0754    7.4934   40.4803 O   0  5  0  0  0  0
   58.0671    8.2608   40.4147 C   0  0  0  0  0  0
   58.2716    9.2184   41.1804 O   0  0  0  0  0  0
   59.0842    8.0501   39.3471 C   0  0  0  0  0  0
   59.8684    9.1182   38.9068 C   0  0  0  0  0  0
   59.2693    6.8016   38.7652 C   0  0  0  0  0  0
   60.2282    6.6260   37.7727 C   0  0  0  0  0  0
   61.0099    7.6986   37.3152 C   0  0  0  0  0  0
   60.7975    8.9492   37.8964 C   0  0  0  0  0  0
   62.0201    7.5197   36.2301 C   0  0  0  0  0  0
   62.1032    6.3845   35.5014 C   0  0  0  0  0  0
   62.9955    8.6128   35.9489 C   0  0  0  0  0  0
   64.3409    8.5059   36.3119 C   0  0  0  0  0  0
   64.8400    7.3015   37.0892 C   0  0  0  0  0  0
   65.2371    9.5086   35.9451 C   0  0  0  0  0  0
   62.5782    9.7679   35.2861 C   0  0  0  0  0  0
   63.4516   10.8190   34.9538 C   0  0  0  0  0  0
   62.8667   12.0926   34.2834 C   0  0  0  0  0  0
   61.8704   12.7606   35.2579 C   0  0  0  0  0  0
   62.1731   11.6887   32.9654 C   0  0  0  0  0  0
   63.9634   13.1410   33.9314 C   0  0  0  0  0  0
   65.1621   13.1286   34.8788 C   0  0  0  0  0  0
   65.8688   11.7545   34.8918 C   0  0  0  0  0  0
   64.8323   10.6728   35.2732 C   0  0  0  0  0  0
   66.4196   11.4152   33.4872 C   0  0  0  0  0  0
   67.0100   11.8664   35.9356 C   0  0  0  0  0  0
   59.7432   10.1007   39.3090 H   0  0  0  0  0  0
   58.6681    5.9725   39.0904 H   0  0  0  0  0  0
   60.3501    5.6400   37.3723 H   0  0  0  0  0  0
   61.3153    9.8227   37.5465 H   0  0  0  0  0  0
   62.8509    6.2692   34.7338 H   0  0  0  0  0  0
   61.4424    5.5433   35.6334 H   0  0  0  0  0  0
   65.7802    7.4939   37.5963 H   0  0  0  0  0  0
   64.1302    7.0106   37.8626 H   0  0  0  0  0  0
   64.9563    6.4622   36.4114 H   0  0  0  0  0  0
   66.2721    9.3748   36.2077 H   0  0  0  0  0  0
   61.5321    9.8497   35.0290 H   0  0  0  0  0  0
   61.3254   13.5619   34.7683 H   0  0  0  0  0  0
   61.1149   12.0679   35.6304 H   0  0  0  0  0  0
   62.3707   13.1940   36.1150 H   0  0  0  0  0  0
   61.8944   12.5605   32.3707 H   0  0  0  0  0  0
   62.8262   11.0577   32.3653 H   0  0  0  0  0  0
   61.2586   11.1216   33.1413 H   0  0  0  0  0  0
   63.5417   14.1465   33.9111 H   0  0  0  0  0  0
   64.3219   12.9984   32.9128 H   0  0  0  0  0  0
   64.8372   13.4074   35.8829 H   0  0  0  0  0  0
   65.8590   13.9047   34.5722 H   0  0  0  0  0  0
   67.0177   10.5029   33.5196 H   0  0  0  0  0  0
   65.6355   11.2427   32.7490 H   0  0  0  0  0  0
   67.0620   12.2151   33.1204 H   0  0  0  0  0  0
   67.6952   11.0254   35.8855 H   0  0  0  0  0  0
   67.6200   12.7538   35.7676 H   0  0  0  0  0  0
   66.6275   11.9306   36.9555 H   0  0  0  0  0  0
  1  2  1  0  0  0
  2  3  2  0  0  0
  2  4  1  0  0  0
  4  5  1  0  0  0
  4  6  2  0  0  0
  5  9  2  0  0  0
  5 27  1  0  0  0
  6  7  1  0  0  0
  6 28  1  0  0  0
  7  8  2  0  0  0
  7 29  1  0  0  0
  8  9  1  0  0  0
  8 10  1  0  0  0
  9 30  1  0  0  0
 10 11  2  0  0  0
 10 12  1  0  0  0
 11 31  1  0  0  0
 11 32  1  0  0  0
 12 13  1  0  0  0
 12 16  2  0  0  0
 13 14  1  0  0  0
 13 15  2  0  0  0
 14 33  1  0  0  0
 14 34  1  0  0  0
 14 35  1  0  0  0
 15 24  1  0  0  0
 15 36  1  0  0  0
 16 17  1  0  0  0
 16 37  1  0  0  0
 17 18  1  0  0  0
 17 24  2  0  0  0
 18 19  1  0  0  0
 18 20  1  0  0  0
 18 21  1  0  0  0
 19 38  1  0  0  0
 19 39  1  0  0  0
 19 40  1  0  0  0
 20 41  1  0  0  0
 20 42  1  0  0  0
 20 43  1  0  0  0
 21 22  1  0  0  0
 21 44  1  0  0  0
 21 45  1  0  0  0
 22 23  1  0  0  0
 22 46  1  0  0  0
 22 47  1  0  0  0
 23 24  1  0  0  0
 23 25  1  0  0  0
 23 26  1  0  0  0
 25 48  1  0  0  0
 25 49  1  0  0  0
 25 50  1  0  0  0
 26 51  1  0  0  0
 26 52  1  0  0  0
 26 53  1  0  0  0
M  CHG  1   1  -1
M  END
> <s_m_entry_id>
51

> <s_m_entry_name>
3h0a.1_ligand

> <s_m_subgroup_title>
3H0A - minimized_split_by_structure

> <s_m_subgroupid>
3H0A - minimized_split_by_structure

> <b_m_subgroup_collapsed>
0

$$$$
