2GVJ - prepared_molecule4
                    3D
 Schrodinger Suite 2023-1.
 58 60  0  0  1  0            999 V2000
   13.8888    9.2178    1.5352 O   0  0  0  0  0  0
   14.2845    3.8753   -7.3697 O   0  0  0  0  0  0
   15.1895    8.7113    3.4460 C   0  0  0  0  0  0
   14.4385    9.3804    4.3479 C   0  0  0  0  0  0
    9.6059    2.3749   -6.4264 C   0  0  0  0  0  0
   10.4286    1.6850   -7.3129 C   0  0  0  0  0  0
   10.1294    3.3452   -5.5766 C   0  0  0  0  0  0
   15.5971    8.4441    7.8391 C   0  0  0  0  0  0
   14.8738    9.3866    8.5657 C   0  0  0  0  0  0
   15.4684    8.4349    6.4510 C   0  0  0  0  0  0
   11.7913    1.9580   -7.3435 C   0  0  0  0  0  0
   11.4930    3.6200   -5.6018 C   0  0  0  0  0  0
   13.9680   10.2831    6.6231 C   0  0  0  0  0  0
   15.7090    5.7701   -0.0801 C   0  0  0  0  0  0
   15.3778    5.1451   -1.4476 C   0  0  0  0  0  0
   15.4150    7.2753    0.0205 C   0  0  0  0  0  0
   15.9387    3.7109   -1.5616 C   0  0  0  0  0  0
   16.2522    3.6415   -4.1316 C   0  0  0  0  0  0
   14.1644    2.6546   -3.1108 C   0  0  0  0  0  0
   16.0036    2.8150   -5.4147 C   0  0  0  0  0  0
   13.9649    1.8092   -4.3860 C   0  0  0  0  0  0
   14.0611   10.3005    7.9780 N   0  0  0  0  0  0
   15.6131    7.7435    1.3894 N   0  0  0  0  0  0
   14.8384    8.6204    2.0484 C   0  0  0  0  0  0
   13.8058    3.1710   -6.4798 C   0  0  0  0  0  0
   14.6485    9.3724    5.8096 C   0  0  0  0  0  0
   12.3257    2.9185   -6.4807 C   0  0  0  0  0  0
   15.6621    2.9553   -2.8776 C   0  0  0  0  0  0
   14.5469    2.5864   -5.5010 N   0  0  0  0  0  0
   16.0729    8.1709    3.7568 H   0  0  0  0  0  0
   13.5727    9.9331    4.0090 H   0  0  0  0  0  0
    8.5478    2.1641   -6.4107 H   0  0  0  0  0  0
   10.0141    0.9439   -7.9789 H   0  0  0  0  0  0
    9.4821    3.8816   -4.9002 H   0  0  0  0  0  0
   16.2257    7.7209    8.3361 H   0  0  0  0  0  0
   14.9365    9.4125    9.6441 H   0  0  0  0  0  0
   15.9793    7.6712    5.8892 H   0  0  0  0  0  0
   12.4269    1.4145   -8.0283 H   0  0  0  0  0  0
   11.8942    4.3665   -4.9313 H   0  0  0  0  0  0
   13.3191   11.0228    6.1886 H   0  0  0  0  0  0
   16.7648    5.6102    0.1476 H   0  0  0  0  0  0
   15.1496    5.2355    0.6904 H   0  0  0  0  0  0
   15.7781    5.7695   -2.2445 H   0  0  0  0  0  0
   14.2961    5.1400   -1.5850 H   0  0  0  0  0  0
   14.3928    7.4578   -0.3188 H   0  0  0  0  0  0
   16.0483    7.8340   -0.6701 H   0  0  0  0  0  0
   15.5298    3.1148   -0.7476 H   0  0  0  0  0  0
   17.0174    3.7369   -1.3971 H   0  0  0  0  0  0
   15.8501    4.6462   -4.2532 H   0  0  0  0  0  0
   17.3225    3.7919   -3.9948 H   0  0  0  0  0  0
   13.7631    2.1161   -2.2514 H   0  0  0  0  0  0
   13.5752    3.5715   -3.1590 H   0  0  0  0  0  0
   16.4795    1.8376   -5.3251 H   0  0  0  0  0  0
   16.4284    3.2669   -6.3128 H   0  0  0  0  0  0
   12.9417    1.4703   -4.5482 H   0  0  0  0  0  0
   14.5424    0.8874   -4.3175 H   0  0  0  0  0  0
   16.4138    7.3630    1.8736 H   0  0  0  0  0  0
   16.1559    1.9841   -2.8004 H   0  0  0  0  0  0
  1 24  2  0  0  0
  2 25  2  0  0  0
  3  4  2  0  0  0
  3 24  1  0  0  0
  3 30  1  0  0  0
  4 26  1  0  0  0
  4 31  1  0  0  0
  5  6  2  0  0  0
  5  7  1  0  0  0
  5 32  1  0  0  0
  6 11  1  0  0  0
  6 33  1  0  0  0
  7 12  2  0  0  0
  7 34  1  0  0  0
  8  9  2  0  0  0
  8 10  1  0  0  0
  8 35  1  0  0  0
  9 22  1  0  0  0
  9 36  1  0  0  0
 10 26  2  0  0  0
 10 37  1  0  0  0
 11 27  2  0  0  0
 11 38  1  0  0  0
 12 27  1  0  0  0
 12 39  1  0  0  0
 13 22  2  0  0  0
 13 26  1  0  0  0
 13 40  1  0  0  0
 14 15  1  0  0  0
 14 16  1  0  0  0
 14 41  1  0  0  0
 14 42  1  0  0  0
 15 17  1  0  0  0
 15 43  1  0  0  0
 15 44  1  0  0  0
 16 23  1  0  0  0
 16 45  1  0  0  0
 16 46  1  0  0  0
 17 28  1  0  0  0
 17 47  1  0  0  0
 17 48  1  0  0  0
 18 20  1  0  0  0
 18 28  1  0  0  0
 18 49  1  0  0  0
 18 50  1  0  0  0
 19 21  1  0  0  0
 19 28  1  0  0  0
 19 51  1  0  0  0
 19 52  1  0  0  0
 20 29  1  0  0  0
 20 53  1  0  0  0
 20 54  1  0  0  0
 21 29  1  0  0  0
 21 55  1  0  0  0
 21 56  1  0  0  0
 23 24  1  0  0  0
 23 57  1  0  0  0
 25 27  1  0  0  0
 25 29  1  0  0  0
 28 58  1  0  0  0
M  END
> <s_m_subgroup_title>
2GVJ-out->2GVJ - prepared_split_by_molecule

> <s_m_subgroupid>
2GVJ-out->2GVJ - prepared_split_by_molecule

> <b_m_subgroup_collapsed>
0

$$$$
