3VJK - prepared_chainA_ligand
                    3D
 Schrodinger Suite 2023-1.
 61 65  0  0  1  0            999 V2000
   47.0691   63.5489   34.9525 C   0  0  0  0  0  0
   45.8302   63.7325   34.3426 C   0  0  0  0  0  0
   45.9595   64.4223   33.2337 N   0  0  0  0  0  0
   47.2700   64.7173   33.1014 N   0  0  0  0  0  0
   48.0077   64.1723   34.1457 C   0  0  0  0  0  0
   47.6820   65.5114   31.9913 C   0  0  0  0  0  0
   48.7463   66.4137   32.1213 C   0  0  0  0  0  0
   49.1518   67.1817   31.0356 C   0  0  0  0  0  0
   48.4983   67.0548   29.8143 C   0  0  0  0  0  0
   47.4259   66.1785   29.6728 C   0  0  0  0  0  0
   47.0185   65.4076   30.7588 C   0  0  0  0  0  0
   44.4691   63.2606   34.7948 C   0  0  0  0  0  0
   49.3628   64.2869   34.2817 N   0  0  0  0  0  0
   50.2599   63.7030   33.2747 C   0  0  0  0  0  0
   51.6759   64.3172   33.3486 C   0  0  0  0  0  0
   52.2746   64.1126   34.6788 N   0  0  0  0  0  0
   51.3897   64.7528   35.6596 C   0  0  0  0  0  0
   49.9818   64.1224   35.6026 C   0  0  0  0  0  0
   53.6214   64.6971   34.7275 C   0  0  2  0  0  0
   54.6091   64.0625   33.7457 C   0  0  0  0  0  0
   55.9701   64.5596   34.2284 N   0  3  0  0  0  0
   55.8422   64.8980   35.7260 C   0  0  1  0  0  0
   54.3745   64.5717   36.0622 C   0  0  0  0  0  0
   56.8782   64.0381   36.4993 C   0  0  0  0  0  0
   57.4906   64.5879   37.5783 N   0  0  0  0  0  0
   57.0964   65.8643   38.1911 C   0  0  0  0  0  0
   58.1263   66.1913   39.2831 C   0  0  0  0  0  0
   58.7466   64.6066   39.8507 S   0  0  0  0  0  0
   58.6991   64.0093   38.1607 C   0  0  0  0  0  0
   57.1676   62.9077   36.0913 O   0  0  0  0  0  0
   47.2585   63.0187   35.8743 H   0  0  0  0  0  0
   49.2640   66.5386   33.0594 H   0  0  0  0  0  0
   49.9687   67.8753   31.1478 H   0  0  0  0  0  0
   48.8197   67.6481   28.9720 H   0  0  0  0  0  0
   46.9206   66.0896   28.7224 H   0  0  0  0  0  0
   46.1935   64.7219   30.6274 H   0  0  0  0  0  0
   44.0179   62.5802   34.0721 H   0  0  0  0  0  0
   44.5184   62.7292   35.7455 H   0  0  0  0  0  0
   43.7784   64.0931   34.9326 H   0  0  0  0  0  0
   49.8613   63.8598   32.2724 H   0  0  0  0  0  0
   50.3111   62.6217   33.4144 H   0  0  0  0  0  0
   51.6409   65.3789   33.0948 H   0  0  0  0  0  0
   52.2864   63.8363   32.5840 H   0  0  0  0  0  0
   51.3304   65.8297   35.4886 H   0  0  0  0  0  0
   51.7839   64.6153   36.6666 H   0  0  0  0  0  0
   50.0280   63.0630   35.8606 H   0  0  0  0  0  0
   49.3534   64.5959   36.3548 H   0  0  0  0  0  0
   53.5274   65.7638   34.5066 H   0  0  0  0  0  0
   54.5027   64.3768   32.7091 H   0  0  0  0  0  0
   54.6467   62.9734   33.8140 H   0  0  0  0  0  0
   56.2092   65.4014   33.7165 H   0  0  0  0  0  0
   56.6967   63.8786   34.0428 H   0  0  0  0  0  0
   56.0705   65.9637   35.7454 H   0  0  0  0  0  0
   54.2635   63.5497   36.4335 H   0  0  0  0  0  0
   53.9861   65.2312   36.8369 H   0  0  0  0  0  0
   56.1372   65.6695   38.6725 H   0  0  0  0  0  0
   57.0309   66.6910   37.4856 H   0  0  0  0  0  0
   57.6949   66.7657   40.0979 H   0  0  0  0  0  0
   58.9770   66.7428   38.8816 H   0  0  0  0  0  0
   59.5791   64.3889   37.6455 H   0  0  0  0  0  0
   58.7651   62.9242   38.1436 H   0  0  0  0  0  0
  1  2  1  0  0  0
  1  5  2  0  0  0
  1 31  1  0  0  0
  2  3  2  0  0  0
  2 12  1  0  0  0
  3  4  1  0  0  0
  4  5  1  0  0  0
  4  6  1  0  0  0
  5 13  1  0  0  0
  6  7  2  0  0  0
  6 11  1  0  0  0
  7  8  1  0  0  0
  7 32  1  0  0  0
  8  9  2  0  0  0
  8 33  1  0  0  0
  9 10  1  0  0  0
  9 34  1  0  0  0
 10 11  2  0  0  0
 10 35  1  0  0  0
 11 36  1  0  0  0
 12 37  1  0  0  0
 12 38  1  0  0  0
 12 39  1  0  0  0
 13 14  1  0  0  0
 13 18  1  0  0  0
 14 15  1  0  0  0
 14 40  1  0  0  0
 14 41  1  0  0  0
 15 16  1  0  0  0
 15 42  1  0  0  0
 15 43  1  0  0  0
 16 17  1  0  0  0
 16 19  1  0  0  0
 17 18  1  0  0  0
 17 44  1  0  0  0
 17 45  1  0  0  0
 18 46  1  0  0  0
 18 47  1  0  0  0
 19 20  1  0  0  0
 19 23  1  0  0  0
 19 48  1  0  0  0
 20 21  1  0  0  0
 20 49  1  0  0  0
 20 50  1  0  0  0
 21 22  1  0  0  0
 21 51  1  0  0  0
 21 52  1  0  0  0
 22 23  1  0  0  0
 22 24  1  0  0  0
 22 53  1  0  0  0
 23 54  1  0  0  0
 23 55  1  0  0  0
 24 25  1  0  0  0
 24 30  2  0  0  0
 25 26  1  0  0  0
 25 29  1  0  0  0
 26 27  1  0  0  0
 26 56  1  0  0  0
 26 57  1  0  0  0
 27 28  1  0  0  0
 27 58  1  0  0  0
 27 59  1  0  0  0
 28 29  1  0  0  0
 29 60  1  0  0  0
 29 61  1  0  0  0
M  CHG  1  21   1
M  END
> <s_m_subgroup_title>
proteinprep_3VJK-out->3VJK - prepared_split_by_chain->3VJK - prepared_chainA_split_by_structure

> <s_m_subgroupid>
proteinprep_3VJK-out->3VJK - prepared_split_by_chain->3VJK - prepared_chainA_split_by_structure

> <b_m_subgroup_collapsed>
0

$$$$
