6GL8 - minimized_ligand
                    3D
 Structure written by MMmdl.
 95103  0  0  1  0            999 V2000
   15.0591    6.5311   17.5656 C   0  0  0  0  0  0
   15.4219    7.7324   16.6762 C   0  0  0  0  0  0
   16.3772    6.3007   14.8301 C   0  0  0  0  0  0
   16.6540    7.4498   15.8145 C   0  0  0  0  0  0
   15.1393    5.2209   16.7759 C   0  0  0  0  0  0
   15.7919    5.1561   15.5472 N   0  0  0  0  0  0
   15.7615    3.8545   15.0937 C   0  0  0  0  0  0
   15.1409    3.0927   16.0631 C   0  0  0  0  0  0
   14.6679    3.9364   17.0789 C   0  0  0  0  0  0
   13.9982    3.5497   18.3146 C   0  0  0  0  0  0
   14.3021    4.1616   19.3437 O   0  0  0  0  0  0
   13.0934    2.5100   18.3117 N   0  0  0  0  0  0
   16.3985    3.4354   13.8103 C   0  0  0  0  0  0
   15.7324    3.7615   12.6179 C   0  0  0  0  0  0
   17.6635    2.7944   13.7677 C   0  0  0  0  0  0
   17.5963    2.8844   11.3744 C   0  0  0  0  0  0
   16.3667    3.4745   11.4164 C   0  0  0  0  0  0
   15.9336    3.7167   10.1529 O   0  0  0  0  0  0
   16.9729    3.3160    9.3018 C   0  0  0  0  0  0
   17.9903    2.7445   10.0818 O   0  0  0  0  0  0
   18.4140    2.4799   15.0346 C   0  0  0  0  0  0
   18.1201    1.3260   15.6968 N   0  0  0  0  0  0
   19.2215    3.3183   15.4391 O   0  0  0  0  0  0
   18.7627    1.0300   16.9969 C   0  0  1  0  0  0
   17.5851    0.8418   17.9881 C   0  0  0  0  0  0
   17.2933    0.2438   15.1101 C   0  0  0  0  0  0
   16.4665   -0.5116   16.1558 C   0  0  0  0  0  0
   16.5977   -0.2249   17.5304 C   0  0  0  0  0  0
   15.8172   -0.9229   18.4577 C   0  0  0  0  0  0
   14.9362   -1.9171   18.0463 C   0  0  0  0  0  0
   14.8222   -2.2201   16.6954 C   0  0  0  0  0  0
   15.5762   -1.5159   15.7588 C   0  0  0  0  0  0
   19.7398   -0.1811   16.9800 C   0  0  0  0  0  0
   18.2725    2.5174   12.5315 C   0  0  0  0  0  0
   21.1142    0.1741   17.3473 N   0  0  0  0  0  0
   21.7450    1.0716   16.3703 C   0  0  0  0  0  0
   23.1963    1.3948   16.7851 C   0  0  0  0  0  0
   23.9527    0.2009   16.9660 O   0  0  0  0  0  0
   23.3661   -0.7047   17.8974 C   0  0  0  0  0  0
   21.9133   -1.0472   17.5018 C   0  0  0  0  0  0
   12.5786    1.9053   17.1341 C   0  0  0  0  0  0
   12.6332    1.9997   19.5548 C   0  0  0  0  0  0
   12.0190    2.6614   16.0925 C   0  0  0  0  0  0
   11.5976    2.0275   14.9263 C   0  0  0  0  0  0
   11.6948    0.6406   14.8161 C   0  0  0  0  0  0
   12.2138   -0.1174   15.8575 C   0  0  0  0  0  0
   12.6536    0.5143   17.0129 C   0  0  0  0  0  0
   11.2696    2.0414   19.8638 C   0  0  0  0  0  0
   10.8106    1.5426   21.0795 C   0  0  0  0  0  0
   11.7129    0.9837   21.9810 C   0  0  0  0  0  0
   13.0695    0.9151   21.6732 C   0  0  0  0  0  0
   13.5322    1.4220   20.4625 C   0  0  0  0  0  0
   11.2550    0.0043   13.6889 O   0  0  0  0  0  0
   14.0683    6.6728   18.0001 H   0  0  0  0  0  0
   15.7480    6.4880   18.4101 H   0  0  0  0  0  0
   15.5916    8.6162   17.2918 H   0  0  0  0  0  0
   14.5782    7.9626   16.0277 H   0  0  0  0  0  0
   17.2991    5.9995   14.3309 H   0  0  0  0  0  0
   15.6734    6.6184   14.0600 H   0  0  0  0  0  0
   17.5071    7.2052   16.4500 H   0  0  0  0  0  0
   16.9332    8.3467   15.2614 H   0  0  0  0  0  0
   15.0209    2.0205   16.0196 H   0  0  0  0  0  0
   14.7688    4.2475   12.6369 H   0  0  0  0  0  0
   17.3556    4.1742    8.7477 H   0  0  0  0  0  0
   16.6032    2.5963    8.5699 H   0  0  0  0  0  0
   19.3091    1.9000   17.3649 H   0  0  0  0  0  0
   17.0439    1.7824   18.1059 H   0  0  0  0  0  0
   17.9798    0.5978   18.9755 H   0  0  0  0  0  0
   17.9554   -0.4596   14.6067 H   0  0  0  0  0  0
   16.6185    0.6154   14.3400 H   0  0  0  0  0  0
   15.9032   -0.7002   19.5111 H   0  0  0  0  0  0
   14.3391   -2.4463   18.7732 H   0  0  0  0  0  0
   14.1365   -2.9899   16.3805 H   0  0  0  0  0  0
   15.4697   -1.7549   14.7104 H   0  0  0  0  0  0
   19.7411   -0.6684   16.0043 H   0  0  0  0  0  0
   19.3797   -0.9353   17.6819 H   0  0  0  0  0  0
   19.2479    2.0545   12.4827 H   0  0  0  0  0  0
   21.1953    2.0076   16.3040 H   0  0  0  0  0  0
   21.7316    0.6293   15.3727 H   0  0  0  0  0  0
   23.2128    1.9963   17.6960 H   0  0  0  0  0  0
   23.6763    1.9991   16.0150 H   0  0  0  0  0  0
   23.4013   -0.2861   18.9048 H   0  0  0  0  0  0
   23.9661   -1.6141   17.9261 H   0  0  0  0  0  0
   21.9077   -1.6340   16.5809 H   0  0  0  0  0  0
   21.4733   -1.6801   18.2745 H   0  0  0  0  0  0
   11.9363    3.7355   16.1720 H   0  0  0  0  0  0
   11.1765    2.6086   14.1198 H   0  0  0  0  0  0
   12.2835   -1.1912   15.7759 H   0  0  0  0  0  0
   13.0606   -0.0796   17.8158 H   0  0  0  0  0  0
   10.5645    2.4519   19.1631 H   0  0  0  0  0  0
    9.7582    1.5774   21.3131 H   0  0  0  0  0  0
   11.3568    0.5896   22.9217 H   0  0  0  0  0  0
   13.7643    0.4723   22.3689 H   0  0  0  0  0  0
   14.5864    1.3680   20.2311 H   0  0  0  0  0  0
   11.2795   -0.9510   13.7683 H   0  0  0  0  0  0
  1  2  1  0  0  0
  1  5  1  0  0  0
  1 54  1  0  0  0
  1 55  1  0  0  0
  2  4  1  0  0  0
  2 56  1  0  0  0
  2 57  1  0  0  0
  3  4  1  0  0  0
  3  6  1  0  0  0
  3 58  1  0  0  0
  3 59  1  0  0  0
  4 60  1  0  0  0
  4 61  1  0  0  0
  5  6  1  0  0  0
  5  9  2  0  0  0
  6  7  1  0  0  0
  7  8  2  0  0  0
  7 13  1  0  0  0
  8  9  1  0  0  0
  8 62  1  0  0  0
  9 10  1  0  0  0
 10 11  2  0  0  0
 10 12  1  0  0  0
 12 41  1  0  0  0
 12 42  1  0  0  0
 13 14  2  0  0  0
 13 15  1  0  0  0
 14 17  1  0  0  0
 14 63  1  0  0  0
 15 21  1  0  0  0
 15 34  2  0  0  0
 16 17  2  0  0  0
 16 20  1  0  0  0
 16 34  1  0  0  0
 17 18  1  0  0  0
 18 19  1  0  0  0
 19 20  1  0  0  0
 19 64  1  0  0  0
 19 65  1  0  0  0
 21 22  1  0  0  0
 21 23  2  0  0  0
 22 24  1  0  0  0
 22 26  1  0  0  0
 24 25  1  0  0  0
 24 33  1  0  0  0
 24 66  1  0  0  0
 25 28  1  0  0  0
 25 67  1  0  0  0
 25 68  1  0  0  0
 26 27  1  0  0  0
 26 69  1  0  0  0
 26 70  1  0  0  0
 27 28  1  0  0  0
 27 32  2  0  0  0
 28 29  2  0  0  0
 29 30  1  0  0  0
 29 71  1  0  0  0
 30 31  2  0  0  0
 30 72  1  0  0  0
 31 32  1  0  0  0
 31 73  1  0  0  0
 32 74  1  0  0  0
 33 35  1  0  0  0
 33 75  1  0  0  0
 33 76  1  0  0  0
 34 77  1  0  0  0
 35 36  1  0  0  0
 35 40  1  0  0  0
 36 37  1  0  0  0
 36 78  1  0  0  0
 36 79  1  0  0  0
 37 38  1  0  0  0
 37 80  1  0  0  0
 37 81  1  0  0  0
 38 39  1  0  0  0
 39 40  1  0  0  0
 39 82  1  0  0  0
 39 83  1  0  0  0
 40 84  1  0  0  0
 40 85  1  0  0  0
 41 43  1  0  0  0
 41 47  2  0  0  0
 42 48  1  0  0  0
 42 52  2  0  0  0
 43 44  2  0  0  0
 43 86  1  0  0  0
 44 45  1  0  0  0
 44 87  1  0  0  0
 45 46  2  0  0  0
 45 53  1  0  0  0
 46 47  1  0  0  0
 46 88  1  0  0  0
 47 89  1  0  0  0
 48 49  2  0  0  0
 48 90  1  0  0  0
 49 50  1  0  0  0
 49 91  1  0  0  0
 50 51  2  0  0  0
 50 92  1  0  0  0
 51 52  1  0  0  0
 51 93  1  0  0  0
 52 94  1  0  0  0
 53 95  1  0  0  0
M  END
> <s_m_entry_id>
35

> <s_m_entry_name>
6gl8.1_ligand

> <s_m_subgroup_title>
6GL8 - minimized_split_by_structure

> <s_m_subgroupid>
6GL8 - minimized_split_by_structure

> <b_m_subgroup_collapsed>
0

$$$$
