6CM4 - minimized_ligand
                    3D
 Structure written by MMmdl.
 58 62  0  0  1  0            999 V2000
    5.7315    4.2028  -12.9186 C   0  0  0  0  0  0
    7.1314    3.8905  -13.4300 C   0  0  0  0  0  0
    8.2787    4.5265  -13.0582 C   0  0  0  0  0  0
    8.3460    5.7027  -12.0784 C   0  0  0  0  0  0
    8.7855    5.2368  -10.6759 C   0  0  0  0  0  0
   10.1278    7.3288  -10.0377 C   0  0  0  0  0  0
   10.3814    8.3583   -8.9203 C   0  0  0  0  0  0
   10.5710    7.6859   -7.5408 C   0  0  2  0  0  0
    9.3106    6.8711   -7.2136 C   0  0  0  0  0  0
    9.0619    5.7777   -8.2579 C   0  0  0  0  0  0
   10.9507    8.6108   -6.3958 C   0  0  0  0  0  0
   11.5611    9.4472   -4.4288 C   0  0  0  0  0  0
   11.3972    8.2269   -5.0950 C   0  0  0  0  0  0
   11.6701    7.0333   -4.4063 C   0  0  0  0  0  0
   12.1234    7.1133   -3.0866 C   0  0  0  0  0  0
   12.2879    8.3465   -2.4533 C   0  0  0  0  0  0
   11.9911    9.5407   -3.1056 C   0  0  0  0  0  0
    9.5572    4.0433  -13.5962 C   0  0  0  0  0  0
   10.7730    2.4011  -14.8826 C   0  0  0  0  0  0
   10.6426    1.4050  -16.0497 C   0  0  0  0  0  0
    9.5425    0.3864  -15.7642 C   0  0  0  0  0  0
    8.1824    1.0905  -15.6295 C   0  0  0  0  0  0
    8.2315    2.3234  -14.7158 C   0  0  0  0  0  0
   12.7538    8.3881   -1.1892 F   0  0  0  0  0  0
    8.9397    6.4019   -9.6682 N   0  3  2  0  0  0
   10.8833    9.9223   -6.4936 N   0  0  0  0  0  0
    9.4588    2.9319  -14.4133 N   0  0  0  0  0  0
    7.1249    2.8052  -14.2570 N   0  0  0  0  0  0
   11.2426   10.4745   -5.2602 O   0  0  0  0  0  0
   10.6265    4.5966  -13.3121 O   0  0  0  0  0  0
    5.1770    3.2894  -12.6968 H   0  0  0  0  0  0
    5.7397    4.7889  -12.0012 H   0  0  0  0  0  0
    5.1754    4.7589  -13.6734 H   0  0  0  0  0  0
    7.3843    6.2094  -12.0125 H   0  0  0  0  0  0
    9.0289    6.4524  -12.4778 H   0  0  0  0  0  0
    9.7383    4.7059  -10.6804 H   0  0  0  0  0  0
    8.0227    4.5790  -10.2568 H   0  0  0  0  0  0
   10.9977    6.6918  -10.1871 H   0  0  0  0  0  0
    9.8750    7.8267  -10.9732 H   0  0  0  0  0  0
    9.5510    9.0664   -8.8837 H   0  0  0  0  0  0
   11.2664    8.9448   -9.1734 H   0  0  0  0  0  0
   11.4023    6.9846   -7.6408 H   0  0  0  0  0  0
    8.4438    7.5299   -7.1426 H   0  0  0  0  0  0
    9.4044    6.4081   -6.2321 H   0  0  0  0  0  0
    8.1305    5.2479   -8.0580 H   0  0  0  0  0  0
    9.8874    5.0656   -8.2970 H   0  0  0  0  0  0
   11.5496    6.0758   -4.8879 H   0  0  0  0  0  0
   12.3543    6.2063   -2.5472 H   0  0  0  0  0  0
   12.0939   10.4922   -2.6122 H   0  0  0  0  0  0
   11.4383    3.2107  -15.1900 H   0  0  0  0  0  0
   11.2456    1.9026  -14.0351 H   0  0  0  0  0  0
   11.5940    0.8998  -16.2151 H   0  0  0  0  0  0
   10.4196    1.9429  -16.9728 H   0  0  0  0  0  0
    9.7757   -0.1627  -14.8499 H   0  0  0  0  0  0
    9.4997   -0.3562  -16.5621 H   0  0  0  0  0  0
    7.4337    0.3861  -15.2629 H   0  0  0  0  0  0
    7.8393    1.4114  -16.6138 H   0  0  0  0  0  0
    8.0837    6.9515   -9.6923 H   0  0  0  0  0  0
  1  2  1  0  0  0
  1 31  1  0  0  0
  1 32  1  0  0  0
  1 33  1  0  0  0
  2  3  2  0  0  0
  2 28  1  0  0  0
  3  4  1  0  0  0
  3 18  1  0  0  0
  4  5  1  0  0  0
  4 34  1  0  0  0
  4 35  1  0  0  0
  5 25  1  0  0  0
  5 36  1  0  0  0
  5 37  1  0  0  0
  6  7  1  0  0  0
  6 25  1  0  0  0
  6 38  1  0  0  0
  6 39  1  0  0  0
  7  8  1  0  0  0
  7 40  1  0  0  0
  7 41  1  0  0  0
  8  9  1  0  0  0
  8 11  1  0  0  0
  8 42  1  0  0  0
  9 10  1  0  0  0
  9 43  1  0  0  0
  9 44  1  0  0  0
 10 25  1  0  0  0
 10 45  1  0  0  0
 10 46  1  0  0  0
 11 13  1  0  0  0
 11 26  2  0  0  0
 12 13  2  0  0  0
 12 17  1  0  0  0
 12 29  1  0  0  0
 13 14  1  0  0  0
 14 15  2  0  0  0
 14 47  1  0  0  0
 15 16  1  0  0  0
 15 48  1  0  0  0
 16 17  2  0  0  0
 16 24  1  0  0  0
 17 49  1  0  0  0
 18 27  1  0  0  0
 18 30  2  0  0  0
 19 20  1  0  0  0
 19 27  1  0  0  0
 19 50  1  0  0  0
 19 51  1  0  0  0
 20 21  1  0  0  0
 20 52  1  0  0  0
 20 53  1  0  0  0
 21 22  1  0  0  0
 21 54  1  0  0  0
 21 55  1  0  0  0
 22 23  1  0  0  0
 22 56  1  0  0  0
 22 57  1  0  0  0
 23 27  1  0  0  0
 23 28  2  0  0  0
 25 58  1  0  0  0
 26 29  1  0  0  0
M  CHG  1  25   1
M  END
> <s_m_entry_id>
77

> <s_m_entry_name>
6cm4.1_ligand

> <s_m_subgroup_title>
6CM4 - minimized_split_by_structure

> <s_m_subgroupid>
6CM4 - minimized_split_by_structure

> <b_m_subgroup_collapsed>
0

$$$$
