1KKQ - prepared_chainA_ligand
                    3D
 Schrodinger Suite 2023-1.
 82 85  0  0  1  0            999 V2000
   73.2653   29.4512   26.4538 N   0  3  0  0  0  0
   72.7865   29.0772   27.8208 C   0  0  1  0  0  0
   73.9808   29.1000   28.8162 C   0  0  0  0  0  0
   75.2426   28.3652   28.3834 C   0  0  0  0  0  0
   76.2663   29.0740   27.7498 C   0  0  0  0  0  0
   75.3971   27.0041   28.6558 C   0  0  0  0  0  0
   77.4350   28.4211   27.3751 C   0  0  0  0  0  0
   76.5692   26.3505   28.2830 C   0  0  0  0  0  0
   77.5833   27.0585   27.6370 C   0  0  0  0  0  0
   78.7307   26.4087   27.2579 O   0  0  0  0  0  0
   72.9431   28.8952   25.2836 C   0  0  0  0  0  0
   73.5176   29.4310   23.9755 C   0  0  0  0  0  0
   71.9873   27.7415   25.2009 C   0  0  0  0  0  0
   75.5050   30.5644   22.7413 C   0  0  0  0  0  0
   74.8193   30.7901   21.5420 C   0  0  0  0  0  0
   75.5276   31.1267   20.3886 C   0  0  0  0  0  0
   76.9214   31.2336   20.4215 C   0  0  0  0  0  0
   77.7140   31.6241   19.1772 C   0  0  0  0  0  0
   76.9857   31.5552   18.0655 F   0  0  0  0  0  0
   78.1535   32.8731   19.3144 F   0  0  0  0  0  0
   78.7659   30.8208   19.0323 F   0  0  0  0  0  0
   77.6047   30.9883   21.6138 C   0  0  0  0  0  0
   76.9013   30.6668   22.7677 C   0  0  0  0  0  0
   74.7775   30.3408   24.0221 C   0  0  0  0  0  0
   75.2339   30.7547   25.0908 O   0  0  0  0  0  0
   80.5161   25.6650   21.7677 O   0  0  0  0  0  0
   80.3215   24.3791   22.1575 C   0  0  0  0  0  0
   80.1434   24.2414   23.4545 N   0  0  0  0  0  0
   80.2686   25.4623   23.9530 C   0  0  0  0  0  0
   80.4846   26.3673   22.9224 C   0  0  0  0  0  0
   80.6875   27.8590   22.8328 C   0  0  0  0  0  0
   80.4065   23.3022   21.1229 C   0  0  0  0  0  0
   80.3705   21.9538   21.4982 C   0  0  0  0  0  0
   80.5059   20.9549   20.5376 C   0  0  0  0  0  0
   80.6421   21.2977   19.1958 C   0  0  0  0  0  0
   80.6681   22.6340   18.8081 C   0  0  0  0  0  0
   80.5593   23.6343   19.7711 C   0  0  0  0  0  0
   78.7557   26.0595   25.8791 C   0  0  0  0  0  0
   80.1848   25.7188   25.4439 C   0  0  0  0  0  0
   71.7343   30.1177   28.2784 C   0  0  0  0  0  0
   70.3526   29.8407   27.9040 N   0  0  0  0  0  0
   69.7007   30.4281   26.8886 C   0  0  0  0  0  0
   70.2366   31.1932   26.0866 O   0  0  0  0  0  0
   68.2075   30.1200   26.7753 C   0  0  0  0  0  0
   67.9223   28.9793   25.7909 C   0  0  0  0  0  0
   73.9237   30.2249   26.4172 H   0  0  0  0  0  0
   72.3696   28.0700   27.7765 H   0  0  0  0  0  0
   73.6597   28.6922   29.7768 H   0  0  0  0  0  0
   74.2594   30.1318   29.0429 H   0  0  0  0  0  0
   76.1615   30.1308   27.5511 H   0  0  0  0  0  0
   74.6175   26.4592   29.1667 H   0  0  0  0  0  0
   78.2236   28.9664   26.8782 H   0  0  0  0  0  0
   76.6904   25.2974   28.4907 H   0  0  0  0  0  0
   72.7186   29.9912   23.4892 H   0  0  0  0  0  0
   73.7346   28.5811   23.3303 H   0  0  0  0  0  0
   71.7702   27.5010   24.1598 H   0  0  0  0  0  0
   72.4281   26.8642   25.6766 H   0  0  0  0  0  0
   71.0507   27.9928   25.6985 H   0  0  0  0  0  0
   73.7402   30.7460   21.4958 H   0  0  0  0  0  0
   74.9907   31.3361   19.4754 H   0  0  0  0  0  0
   78.6817   31.0697   21.6555 H   0  0  0  0  0  0
   77.4547   30.5111   23.6836 H   0  0  0  0  0  0
   80.6057   28.3366   23.8090 H   0  0  0  0  0  0
   81.6749   28.1000   22.4401 H   0  0  0  0  0  0
   79.9510   28.3289   22.1801 H   0  0  0  0  0  0
   80.2553   21.6722   22.5343 H   0  0  0  0  0  0
   80.5034   19.9171   20.8318 H   0  0  0  0  0  0
   80.7291   20.5207   18.4507 H   0  0  0  0  0  0
   80.7773   22.8918   17.7664 H   0  0  0  0  0  0
   80.6024   24.6651   19.4582 H   0  0  0  0  0  0
   78.4050   26.8971   25.2737 H   0  0  0  0  0  0
   78.0861   25.2165   25.6975 H   0  0  0  0  0  0
   80.8314   26.5589   25.6933 H   0  0  0  0  0  0
   80.5592   24.8646   26.0104 H   0  0  0  0  0  0
   72.0197   31.1232   27.9764 H   0  0  0  0  0  0
   71.7382   30.1805   29.3605 H   0  0  0  0  0  0
   69.8266   29.2517   28.5344 H   0  0  0  0  0  0
   67.6878   31.0247   26.4561 H   0  0  0  0  0  0
   67.7978   29.8725   27.7563 H   0  0  0  0  0  0
   66.8453   28.8526   25.6966 H   0  0  0  0  0  0
   68.3056   29.1886   24.7910 H   0  0  0  0  0  0
   68.3235   28.0272   26.1416 H   0  0  0  0  0  0
  1  2  1  0  0  0
  1 11  2  0  0  0
  1 46  1  0  0  0
  2  3  1  0  0  0
  2 40  1  0  0  0
  2 47  1  0  0  0
  3  4  1  0  0  0
  3 48  1  0  0  0
  3 49  1  0  0  0
  4  5  2  0  0  0
  4  6  1  0  0  0
  5  7  1  0  0  0
  5 50  1  0  0  0
  6  8  2  0  0  0
  6 51  1  0  0  0
  7  9  2  0  0  0
  7 52  1  0  0  0
  8  9  1  0  0  0
  8 53  1  0  0  0
  9 10  1  0  0  0
 10 38  1  0  0  0
 11 12  1  0  0  0
 11 13  1  0  0  0
 12 24  1  0  0  0
 12 54  1  0  0  0
 12 55  1  0  0  0
 13 56  1  0  0  0
 13 57  1  0  0  0
 13 58  1  0  0  0
 14 15  2  0  0  0
 14 23  1  0  0  0
 14 24  1  0  0  0
 15 16  1  0  0  0
 15 59  1  0  0  0
 16 17  2  0  0  0
 16 60  1  0  0  0
 17 18  1  0  0  0
 17 22  1  0  0  0
 18 19  1  0  0  0
 18 20  1  0  0  0
 18 21  1  0  0  0
 22 23  2  0  0  0
 22 61  1  0  0  0
 23 62  1  0  0  0
 24 25  2  0  0  0
 26 27  1  0  0  0
 26 30  1  0  0  0
 27 28  2  0  0  0
 27 32  1  0  0  0
 28 29  1  0  0  0
 29 30  2  0  0  0
 29 39  1  0  0  0
 30 31  1  0  0  0
 31 63  1  0  0  0
 31 64  1  0  0  0
 31 65  1  0  0  0
 32 33  2  0  0  0
 32 37  1  0  0  0
 33 34  1  0  0  0
 33 66  1  0  0  0
 34 35  2  0  0  0
 34 67  1  0  0  0
 35 36  1  0  0  0
 35 68  1  0  0  0
 36 37  2  0  0  0
 36 69  1  0  0  0
 37 70  1  0  0  0
 38 39  1  0  0  0
 38 71  1  0  0  0
 38 72  1  0  0  0
 39 73  1  0  0  0
 39 74  1  0  0  0
 40 41  1  0  0  0
 40 75  1  0  0  0
 40 76  1  0  0  0
 41 42  1  0  0  0
 41 77  1  0  0  0
 42 43  2  0  0  0
 42 44  1  0  0  0
 44 45  1  0  0  0
 44 78  1  0  0  0
 44 79  1  0  0  0
 45 80  1  0  0  0
 45 81  1  0  0  0
 45 82  1  0  0  0
M  CHG  1   1   1
M  END
> <s_m_subgroup_title>
1KKQ-out->1KKQ - prepared_split_by_chain->1KKQ - prepared_chainA_split_by_structure

> <s_m_subgroupid>
1KKQ-out->1KKQ - prepared_split_by_chain->1KKQ - prepared_chainA_split_by_structure

> <b_m_subgroup_collapsed>
0

$$$$
