8FLL - minimized_ligand
                    3D
 Structure written by MMmdl.
 55 57  0  0  1  0            999 V2000
  -21.2439    1.8128    0.9109 N   0  0  0  0  0  0
  -22.8629    3.4941    1.1859 C   0  0  0  0  0  0
  -23.8984    3.0650    0.3130 C   0  0  0  0  0  0
  -24.1457    1.7195   -0.2993 C   0  0  0  0  0  0
  -24.2114    0.5838    0.5133 C   0  0  0  0  0  0
  -24.4977   -0.6623   -0.0383 C   0  0  0  0  0  0
  -25.1171   -2.1436   -1.9941 C   0  0  0  0  0  0
  -23.9966   -2.9489   -5.5916 C   0  0  0  0  0  0
  -23.8066   -3.8856   -7.8353 C   0  0  0  0  0  0
  -22.4226   -3.8034   -7.7651 C   0  0  0  0  0  0
  -20.5798   -2.2022   -4.3036 C   0  0  0  0  0  0
  -24.3453    1.5901   -1.6771 C   0  0  0  0  0  0
  -25.2515    6.9185   -0.6138 C   0  0  0  0  0  0
  -21.2816    2.9740    2.8337 O   0  0  0  0  0  0
  -21.7485    2.7461    1.7199 C   0  0  0  0  0  0
  -24.7253   -0.7863   -1.4114 C   0  0  0  0  0  0
  -24.4120   -2.5117   -3.2242 N   0  0  0  0  0  0
  -24.9158   -2.4886   -4.4727 C   0  0  0  0  0  0
  -24.5831   -3.4747   -6.7558 C   0  0  0  0  0  0
  -24.3980   -4.3515   -8.9573 F   0  0  0  0  0  0
  -21.8174   -3.2935   -6.6214 C   0  0  0  0  0  0
  -22.5830   -2.8493   -5.5269 C   0  0  0  0  0  0
  -21.9955   -2.3042   -4.3965 O   0  0  0  0  0  0
  -26.0812   -2.1585   -4.7080 O   0  0  0  0  0  0
  -24.6259    0.3426   -2.2294 C   0  0  0  0  0  0
  -24.7400    4.0460    0.0589 N   0  0  0  0  0  0
  -24.3514    5.0834    0.8163 N   0  0  0  0  0  0
  -25.1459    6.3298    0.8110 C   0  0  2  0  0  0
  -26.5230    6.1200    1.4898 C   0  0  0  0  0  0
  -26.3962    5.5442    2.6834 F   0  0  0  0  0  0
  -27.1367    7.2874    1.6852 F   0  0  0  0  0  0
  -27.3461    5.3649    0.7615 F   0  0  0  0  0  0
  -23.2311    4.7867    1.5633 C   0  0  0  0  0  0
  -22.6691    5.6842    2.4346 N   0  0  0  0  0  0
  -20.4547    1.2543    1.2127 H   0  0  0  0  0  0
  -21.6535    1.6484    0.0035 H   0  0  0  0  0  0
  -24.0592    0.6661    1.5785 H   0  0  0  0  0  0
  -24.5639   -1.5246    0.6109 H   0  0  0  0  0  0
  -26.1949   -2.1367   -2.1502 H   0  0  0  0  0  0
  -24.9378   -2.9277   -1.2592 H   0  0  0  0  0  0
  -21.8178   -4.1280   -8.5993 H   0  0  0  0  0  0
  -20.3188   -1.7528   -3.3468 H   0  0  0  0  0  0
  -20.1021   -3.1824   -4.3456 H   0  0  0  0  0  0
  -20.1702   -1.5630   -5.0874 H   0  0  0  0  0  0
  -24.2948    2.4562   -2.3214 H   0  0  0  0  0  0
  -25.8117    7.8541   -0.6125 H   0  0  0  0  0  0
  -24.2650    7.1398   -1.0187 H   0  0  0  0  0  0
  -25.7526    6.2380   -1.3036 H   0  0  0  0  0  0
  -23.4159   -2.6609   -3.1395 H   0  0  0  0  0  0
  -25.6570   -3.5564   -6.8400 H   0  0  0  0  0  0
  -20.7407   -3.2410   -6.6113 H   0  0  0  0  0  0
  -24.7972    0.2605   -3.2908 H   0  0  0  0  0  0
  -24.6057    7.0637    1.4097 H   0  0  0  0  0  0
  -23.1828    5.9803    3.2522 H   0  0  0  0  0  0
  -21.6628    5.7229    2.5435 H   0  0  0  0  0  0
  1 15  1  0  0  0
  1 35  1  0  0  0
  1 36  1  0  0  0
  2  3  1  0  0  0
  2 15  1  0  0  0
  2 33  2  0  0  0
  3  4  1  0  0  0
  3 26  2  0  0  0
  4  5  1  0  0  0
  4 12  2  0  0  0
  5  6  2  0  0  0
  5 37  1  0  0  0
  6 16  1  0  0  0
  6 38  1  0  0  0
  7 16  1  0  0  0
  7 17  1  0  0  0
  7 39  1  0  0  0
  7 40  1  0  0  0
  8 18  1  0  0  0
  8 19  1  0  0  0
  8 22  2  0  0  0
  9 10  1  0  0  0
  9 19  2  0  0  0
  9 20  1  0  0  0
 10 21  2  0  0  0
 10 41  1  0  0  0
 11 23  1  0  0  0
 11 42  1  0  0  0
 11 43  1  0  0  0
 11 44  1  0  0  0
 12 25  1  0  0  0
 12 45  1  0  0  0
 13 28  1  0  0  0
 13 46  1  0  0  0
 13 47  1  0  0  0
 13 48  1  0  0  0
 14 15  2  0  0  0
 16 25  2  0  0  0
 17 18  1  0  0  0
 17 49  1  0  0  0
 18 24  2  0  0  0
 19 50  1  0  0  0
 21 22  1  0  0  0
 21 51  1  0  0  0
 22 23  1  0  0  0
 25 52  1  0  0  0
 26 27  1  0  0  0
 27 28  1  0  0  0
 27 33  1  0  0  0
 28 29  1  0  0  0
 28 53  1  0  0  0
 29 30  1  0  0  0
 29 31  1  0  0  0
 29 32  1  0  0  0
 33 34  1  0  0  0
 34 54  1  0  0  0
 34 55  1  0  0  0
M  END
> <s_m_entry_id>
127

> <s_m_entry_name>
8fll.1_ligand

> <s_m_subgroup_title>
8FLL - minimized_split_by_structure

> <s_m_subgroupid>
8FLL - minimized_split_by_structure

> <b_m_subgroup_collapsed>
0

$$$$
