3MXF - minimized_ligand
                    3D
 Structure written by MMmdl.
 56 59  0  0  1  0            999 V2000
   29.8077   18.9372    1.7305 C   0  0  0  0  0  0
   25.1116   15.1255    1.4370 C   0  0  0  0  0  0
   25.6341   14.8334   -1.6928 C   0  0  0  0  0  0
   29.2233   13.0000   -5.5899 C   0  0  0  0  0  0
   30.7269   11.0641   -4.8892 C   0  0  0  0  0  0
   28.6211   11.5742   -3.6130 C   0  0  0  0  0  0
   32.2001   13.8542   -4.7062 O   0  0  0  0  0  0
   24.7602   18.4241   -6.7542 Cl  0  0  0  0  0  0
   25.5033   18.0438   -4.1860 C   0  0  0  0  0  0
   26.9142   17.0510   -5.8717 C   0  0  0  0  0  0
   26.3369   17.5434   -3.1911 C   0  0  0  0  0  0
   27.7404   16.5418   -4.8742 C   0  0  0  0  0  0
   31.7872   14.8673   -2.5556 C   0  0  0  0  0  0
   29.5866   15.9444   -2.7904 N   0  0  0  0  0  0
   31.7538   18.0869    0.4149 N   0  0  0  0  0  0
   31.9947   17.1153   -0.5521 N   0  0  0  0  0  0
   30.4289   13.0594   -3.4395 O   0  0  0  0  0  0
   27.6457   16.3019    1.5165 S   0  0  0  0  0  0
   31.5093   13.8601   -3.6883 C   0  0  0  0  0  0
   28.3792   16.2372   -2.4579 C   0  0  0  0  0  0
   25.7935   17.7972   -5.5232 C   0  0  0  0  0  0
   30.4856   18.0088    0.7411 C   0  0  0  0  0  0
   27.4629   16.7701   -3.5125 C   0  0  0  0  0  0
   26.3187   15.5980    0.6564 C   0  0  0  0  0  0
   26.5822   15.5193   -0.7192 C   0  0  0  0  0  0
   30.8608   16.4907   -0.7691 C   0  0  0  0  0  0
   27.8323   16.1063   -1.0697 C   0  0  0  0  0  0
   28.5589   16.5263    0.0702 C   0  0  0  0  0  0
   30.5378   15.4182   -1.8119 C   0  0  2  0  0  0
   29.8641   16.9914    0.0436 N   0  0  0  0  0  0
   29.7939   12.1948   -4.3985 C   0  0  0  0  0  0
   28.9277   19.4153    1.3031 H   0  0  0  0  0  0
   29.4750   18.4180    2.6272 H   0  0  0  0  0  0
   30.4699   19.7376    2.0610 H   0  0  0  0  0  0
   24.2598   14.8943    0.7991 H   0  0  0  0  0  0
   25.3383   14.2246    2.0075 H   0  0  0  0  0  0
   24.7718   15.8772    2.1493 H   0  0  0  0  0  0
   26.1625   14.3587   -2.5198 H   0  0  0  0  0  0
   25.0478   14.0444   -1.2241 H   0  0  0  0  0  0
   24.9177   15.5290   -2.1239 H   0  0  0  0  0  0
   28.5030   13.7435   -5.2519 H   0  0  0  0  0  0
   30.0015   13.5210   -6.1476 H   0  0  0  0  0  0
   28.7056   12.3494   -6.2957 H   0  0  0  0  0  0
   31.0503   10.4328   -4.0651 H   0  0  0  0  0  0
   30.2164   10.4156   -5.6019 H   0  0  0  0  0  0
   31.6182   11.4441   -5.3869 H   0  0  0  0  0  0
   28.9759   10.9867   -2.7663 H   0  0  0  0  0  0
   27.9505   12.3401   -3.2194 H   0  0  0  0  0  0
   28.0258   10.9085   -4.2391 H   0  0  0  0  0  0
   24.6392   18.6314   -3.9170 H   0  0  0  0  0  0
   27.1447   16.8682   -6.9114 H   0  0  0  0  0  0
   26.0919   17.7711   -2.1666 H   0  0  0  0  0  0
   28.6114   15.9803   -5.1793 H   0  0  0  0  0  0
   32.3276   15.7039   -2.9957 H   0  0  0  0  0  0
   32.4721   14.4083   -1.8466 H   0  0  0  0  0  0
   30.0914   14.5638   -1.2946 H   0  0  0  0  0  0
  1 22  1  0  0  0
  1 32  1  0  0  0
  1 33  1  0  0  0
  1 34  1  0  0  0
  2 24  1  0  0  0
  2 35  1  0  0  0
  2 36  1  0  0  0
  2 37  1  0  0  0
  3 25  1  0  0  0
  3 38  1  0  0  0
  3 39  1  0  0  0
  3 40  1  0  0  0
  4 31  1  0  0  0
  4 41  1  0  0  0
  4 42  1  0  0  0
  4 43  1  0  0  0
  5 31  1  0  0  0
  5 44  1  0  0  0
  5 45  1  0  0  0
  5 46  1  0  0  0
  6 31  1  0  0  0
  6 47  1  0  0  0
  6 48  1  0  0  0
  6 49  1  0  0  0
  7 19  2  0  0  0
  8 21  1  0  0  0
  9 11  1  0  0  0
  9 21  2  0  0  0
  9 50  1  0  0  0
 10 12  2  0  0  0
 10 21  1  0  0  0
 10 51  1  0  0  0
 11 23  2  0  0  0
 11 52  1  0  0  0
 12 23  1  0  0  0
 12 53  1  0  0  0
 13 19  1  0  0  0
 13 29  1  0  0  0
 13 54  1  0  0  0
 13 55  1  0  0  0
 14 20  2  0  0  0
 14 29  1  0  0  0
 15 16  1  0  0  0
 15 22  2  0  0  0
 16 26  2  0  0  0
 17 19  1  0  0  0
 17 31  1  0  0  0
 18 24  1  0  0  0
 18 28  1  0  0  0
 20 23  1  0  0  0
 20 27  1  0  0  0
 22 30  1  0  0  0
 24 25  2  0  0  0
 25 27  1  0  0  0
 26 29  1  0  0  0
 26 30  1  0  0  0
 27 28  2  0  0  0
 28 30  1  0  0  0
 29 56  1  0  0  0
M  END
> <s_m_entry_id>
40

> <s_m_entry_name>
3mxf.1_ligand

> <s_m_subgroup_title>
3MXF - minimized_split_by_structure

> <s_m_subgroupid>
3MXF - minimized_split_by_structure

> <b_m_subgroup_collapsed>
0

$$$$
