2NW4 - minimized_ligand
                    3D
 Structure written by MMmdl.
 33 35  0  0  1  0            999 V2000
   23.4928    5.2402    4.3995 Cl  0  0  0  0  0  0
   25.1704    4.8098    4.3293 C   0  0  0  0  0  0
   25.5380    3.4626    4.4765 C   0  0  0  0  0  0
   26.8848    3.1011    4.3065 C   0  0  0  0  0  0
   27.8552    4.0793    4.0892 C   0  0  0  0  0  0
   27.4979    5.4151    4.0006 C   0  0  0  0  0  0
   26.1595    5.7867    4.0999 C   0  0  0  0  0  0
   25.8326    7.1970    3.9524 C   0  0  0  0  0  0
   25.5753    8.3152    3.8321 N   0  0  0  0  0  0
   27.2918    1.7611    4.3471 N   0  0  0  0  0  0
   27.0390    0.8706    3.3424 C   0  0  0  0  0  0
   27.5561   -0.2862    3.7875 N   0  0  0  0  0  0
   28.3891   -0.1401    4.9307 C   0  0  1  0  0  0
   29.7886   -0.4039    4.3422 C   0  0  1  0  0  0
   29.4953   -1.5324    3.3475 C   0  0  0  0  0  0
   28.0517   -1.3098    2.8640 C   0  0  0  0  0  0
   30.3376    0.7088    3.6442 O   0  0  0  0  0  0
   28.0943    1.2764    5.3227 C   0  0  0  0  0  0
   28.5620    1.8516    6.3047 O   0  0  0  0  0  0
   26.4798    1.0823    2.2635 O   0  0  0  0  0  0
   24.5015    2.3927    4.8209 C   0  0  0  0  0  0
   28.8912    3.7999    4.0083 H   0  0  0  0  0  0
   28.2784    6.1452    3.8490 H   0  0  0  0  0  0
   28.0919   -0.8250    5.7178 H   0  0  0  0  0  0
   30.4764   -0.7426    5.1144 H   0  0  0  0  0  0
   29.5586   -2.4958    3.8524 H   0  0  0  0  0  0
   30.2082   -1.5749    2.5254 H   0  0  0  0  0  0
   28.0211   -0.9867    1.8230 H   0  0  0  0  0  0
   27.4675   -2.2253    2.9564 H   0  0  0  0  0  0
   30.4678    1.4289    4.2675 H   0  0  0  0  0  0
   24.9082    1.6698    5.5276 H   0  0  0  0  0  0
   23.6058    2.7945    5.2913 H   0  0  0  0  0  0
   24.2165    1.8523    3.9199 H   0  0  0  0  0  0
  1  2  1  0  0  0
  2  3  2  0  0  0
  2  7  1  0  0  0
  3  4  1  0  0  0
  3 21  1  0  0  0
  4  5  2  0  0  0
  4 10  1  0  0  0
  5  6  1  0  0  0
  5 22  1  0  0  0
  6  7  2  0  0  0
  6 23  1  0  0  0
  7  8  1  0  0  0
  8  9  3  0  0  0
 10 11  1  0  0  0
 10 18  1  0  0  0
 11 12  1  0  0  0
 11 20  2  0  0  0
 12 13  1  0  0  0
 12 16  1  0  0  0
 13 14  1  0  0  0
 13 18  1  0  0  0
 13 24  1  0  0  0
 14 15  1  0  0  0
 14 17  1  0  0  0
 14 25  1  0  0  0
 15 16  1  0  0  0
 15 26  1  0  0  0
 15 27  1  0  0  0
 16 28  1  0  0  0
 16 29  1  0  0  0
 17 30  1  0  0  0
 18 19  2  0  0  0
 21 31  1  0  0  0
 21 32  1  0  0  0
 21 33  1  0  0  0
M  END
> <s_m_entry_id>
62

> <s_m_entry_name>
2nw4.1_ligand

> <s_m_subgroup_title>
2NW4 - minimized_split_by_structure

> <s_m_subgroupid>
2NW4 - minimized_split_by_structure

> <b_m_subgroup_collapsed>
0

$$$$
