1KLM - prepared_chainA_ligand
                    3D
 Schrodinger Suite 2023-1.
 61 64  0  0  1  0            999 V2000
   -1.2636  -35.1516   23.5447 C   0  0  0  0  0  0
   -0.5811  -34.6870   24.7010 C   0  0  0  0  0  0
    0.3707  -35.5394   25.2852 C   0  0  0  0  0  0
    0.6309  -36.7992   24.7395 C   0  0  0  0  0  0
   -0.0695  -37.2148   23.6129 C   0  0  0  0  0  0
   -2.4880  -34.5936   21.4049 C   0  0  0  0  0  0
   -3.4175  -33.5126   20.8087 C   0  0  0  0  0  0
   -4.5925  -33.3140   22.9402 C   0  0  0  0  0  0
   -3.5573  -34.2739   23.5859 C   0  0  0  0  0  0
   -5.7627  -34.2084   20.8636 C   0  0  0  0  0  0
   -7.0056  -34.4410   21.5693 C   0  0  0  0  0  0
   -7.6723  -33.7166   22.5498 C   0  0  0  0  0  0
   -9.9589  -34.1312   23.7188 C   0  0  0  0  0  0
  -11.0588  -34.9994   23.7409 C   0  0  0  0  0  0
  -11.0715  -36.1306   22.9255 C   0  0  0  0  0  0
  -10.0277  -36.4325   22.0482 C   0  0  0  0  0  0
   -8.9586  -35.5335   22.0131 C   0  0  0  0  0  0
   -8.8963  -34.3911   22.8497 C   0  0  0  0  0  0
   -0.0210  -32.5993   26.1266 C   0  0  0  0  0  0
    1.4636  -32.4683   25.7242 C   0  0  0  0  0  0
   -0.2156  -32.9656   27.5985 C   0  0  0  0  0  0
  -10.8307  -34.3744   27.0044 C   0  0  0  0  0  0
   -0.8551  -33.4005   25.2251 N   0  0  0  0  0  0
   -0.9730  -36.3840   23.0669 N   0  3  0  0  0  0
   -2.2751  -34.3990   22.8593 N   0  0  0  0  0  0
   -4.7132  -33.6119   21.4998 N   0  0  0  0  0  0
   -7.8279  -35.4955   21.2329 N   0  0  0  0  0  0
  -12.1754  -34.7797   24.5638 N   0  0  0  0  0  0
   -5.6790  -34.6032   19.6978 O   0  0  0  0  0  0
  -13.4796  -33.8226   26.6024 O   0  0  0  0  0  0
  -11.7806  -32.3284   25.4301 O   0  0  0  0  0  0
  -12.1924  -33.6481   25.9285 S   0  0  0  0  0  0
    0.9157  -35.2430   26.1645 H   0  0  0  0  0  0
    1.3649  -37.4549   25.1796 H   0  0  0  0  0  0
    0.0606  -38.1722   23.1281 H   0  0  0  0  0  0
   -1.5235  -34.5897   20.8969 H   0  0  0  0  0  0
   -2.9154  -35.5861   21.2505 H   0  0  0  0  0  0
   -3.4535  -33.4804   19.7183 H   0  0  0  0  0  0
   -3.0096  -32.5383   21.0799 H   0  0  0  0  0  0
   -4.2448  -32.2855   23.0157 H   0  0  0  0  0  0
   -5.5127  -33.4113   23.4997 H   0  0  0  0  0  0
   -3.9485  -35.2779   23.7027 H   0  0  0  0  0  0
   -3.3414  -33.9069   24.5886 H   0  0  0  0  0  0
   -7.3487  -32.7802   22.9795 H   0  0  0  0  0  0
   -9.9092  -33.2508   24.3355 H   0  0  0  0  0  0
  -11.9206  -36.7992   22.9554 H   0  0  0  0  0  0
  -10.0656  -37.3027   21.4107 H   0  0  0  0  0  0
   -0.4284  -31.5921   26.0254 H   0  0  0  0  0  0
    1.5765  -31.8762   24.8181 H   0  0  0  0  0  0
    2.0300  -31.9528   26.4972 H   0  0  0  0  0  0
    1.9633  -33.4196   25.5580 H   0  0  0  0  0  0
   -1.2682  -32.9235   27.8793 H   0  0  0  0  0  0
    0.1501  -33.9644   27.8029 H   0  0  0  0  0  0
    0.3202  -32.2815   28.2555 H   0  0  0  0  0  0
  -10.6432  -33.7146   27.8444 H   0  0  0  0  0  0
  -11.1446  -35.3565   27.3567 H   0  0  0  0  0  0
   -9.9221  -34.4682   26.4174 H   0  0  0  0  0  0
   -1.5893  -32.8880   24.7582 H   0  0  0  0  0  0
   -1.4734  -36.6984   22.2472 H   0  0  0  0  0  0
   -7.5676  -36.1580   20.5117 H   0  0  0  0  0  0
  -12.8759  -35.5060   24.5852 H   0  0  0  0  0  0
  1  2  1  0  0  0
  1 24  2  0  0  0
  1 25  1  0  0  0
  2  3  2  0  0  0
  2 23  1  0  0  0
  3  4  1  0  0  0
  3 33  1  0  0  0
  4  5  2  0  0  0
  4 34  1  0  0  0
  5 24  1  0  0  0
  5 35  1  0  0  0
  6  7  1  0  0  0
  6 25  1  0  0  0
  6 36  1  0  0  0
  6 37  1  0  0  0
  7 26  1  0  0  0
  7 38  1  0  0  0
  7 39  1  0  0  0
  8  9  1  0  0  0
  8 26  1  0  0  0
  8 40  1  0  0  0
  8 41  1  0  0  0
  9 25  1  0  0  0
  9 42  1  0  0  0
  9 43  1  0  0  0
 10 11  1  0  0  0
 10 26  1  0  0  0
 10 29  2  0  0  0
 11 12  2  0  0  0
 11 27  1  0  0  0
 12 18  1  0  0  0
 12 44  1  0  0  0
 13 14  2  0  0  0
 13 18  1  0  0  0
 13 45  1  0  0  0
 14 15  1  0  0  0
 14 28  1  0  0  0
 15 16  2  0  0  0
 15 46  1  0  0  0
 16 17  1  0  0  0
 16 47  1  0  0  0
 17 18  2  0  0  0
 17 27  1  0  0  0
 19 20  1  0  0  0
 19 21  1  0  0  0
 19 23  1  0  0  0
 19 48  1  0  0  0
 20 49  1  0  0  0
 20 50  1  0  0  0
 20 51  1  0  0  0
 21 52  1  0  0  0
 21 53  1  0  0  0
 21 54  1  0  0  0
 22 32  1  0  0  0
 22 55  1  0  0  0
 22 56  1  0  0  0
 22 57  1  0  0  0
 23 58  1  0  0  0
 24 59  1  0  0  0
 27 60  1  0  0  0
 28 32  1  0  0  0
 28 61  1  0  0  0
 30 32  2  0  0  0
 31 32  2  0  0  0
M  CHG  1  24   1
M  END
> <s_m_subgroup_title>
1KLM-out->1KLM - prepared_split_by_chain->1KLM - prepared_chainA_split_by_structure

> <s_m_subgroupid>
1KLM-out->1KLM - prepared_split_by_chain->1KLM - prepared_chainA_split_by_structure

> <b_m_subgroup_collapsed>
0

$$$$
