1UWH - minimized_ligand
                    3D
 Structure written by MMmdl.
 48 50  0  0  1  0            999 V2000
   77.5351   47.7639   68.3914 C   0  0  0  0  0  0
   77.0375   48.6979   67.4678 C   0  0  0  0  0  0
   76.8463   50.0174   67.8831 C   0  0  0  0  0  0
   77.1141   50.3915   69.1986 C   0  0  0  0  0  0
   76.3347   47.2048   65.6140 C   0  0  0  0  0  0
   75.3821   46.3130   63.5234 C   0  0  0  0  0  0
   75.7593   46.1640   62.1852 C   0  0  0  0  0  0
   75.1287   45.2127   61.3817 C   0  0  0  0  0  0
   74.1132   44.4127   61.9065 C   0  0  0  0  0  0
   73.7142   44.5827   63.2322 C   0  0  0  0  0  0
   74.3417   45.5260   64.0393 C   0  0  0  0  0  0
   73.4645   43.5215   61.0808 O   0  0  0  0  0  0
   74.4422   41.4567   61.9501 C   0  0  0  0  0  0
   74.2929   40.0841   62.1400 C   0  0  0  0  0  0
   72.1084   40.1183   61.3000 C   0  0  0  0  0  0
   72.2044   41.4998   61.0707 C   0  0  0  0  0  0
   70.8343   38.0452   61.0312 N   0  0  0  0  0  0
   69.7065   37.1935   60.6729 C   0  0  0  0  0  0
   77.5815   49.4551   70.1205 C   0  0  0  0  0  0
   77.8086   48.1265   69.7191 C   0  0  0  0  0  0
   78.3491   47.0857   70.7054 C   0  0  0  0  0  0
   79.5447   47.4748   71.1486 F   0  0  0  0  0  0
   77.5171   46.9641   71.7398 F   0  0  0  0  0  0
   78.4942   45.8787   70.1571 F   0  0  0  0  0  0
   77.8536   49.9782   71.7499 Cl  0  0  0  0  0  0
   76.7289   48.3908   66.1251 N   0  0  0  0  0  0
   76.0403   47.2911   64.2990 N   0  0  0  0  0  0
   76.2206   46.1715   66.2730 O   0  0  0  0  0  0
   73.3784   42.1813   61.3986 C   0  0  0  0  0  0
   73.1568   39.4135   61.8203 N   0  0  0  0  0  0
   70.8187   39.3883   60.9801 C   0  0  0  0  0  0
   69.8076   40.0171   60.6639 O   0  0  0  0  0  0
   77.7228   46.7486   68.0776 H   0  0  0  0  0  0
   76.4578   50.7565   67.1975 H   0  0  0  0  0  0
   76.9385   51.4120   69.5061 H   0  0  0  0  0  0
   76.5440   46.7763   61.7643 H   0  0  0  0  0  0
   75.4233   45.0978   60.3482 H   0  0  0  0  0  0
   72.9097   43.9900   63.6311 H   0  0  0  0  0  0
   74.0094   45.6371   65.0602 H   0  0  0  0  0  0
   75.3752   41.9392   62.1950 H   0  0  0  0  0  0
   75.1003   39.4975   62.5519 H   0  0  0  0  0  0
   71.3809   42.0514   60.6394 H   0  0  0  0  0  0
   71.6645   37.5746   61.3690 H   0  0  0  0  0  0
   68.9297   37.2447   61.4356 H   0  0  0  0  0  0
   69.2671   37.4940   59.7210 H   0  0  0  0  0  0
   70.0361   36.1576   60.5859 H   0  0  0  0  0  0
   76.7047   49.1805   65.4925 H   0  0  0  0  0  0
   76.3076   48.1390   63.8176 H   0  0  0  0  0  0
  1  2  1  0  0  0
  1 20  2  0  0  0
  1 33  1  0  0  0
  2  3  2  0  0  0
  2 26  1  0  0  0
  3  4  1  0  0  0
  3 34  1  0  0  0
  4 19  2  0  0  0
  4 35  1  0  0  0
  5 26  1  0  0  0
  5 27  1  0  0  0
  5 28  2  0  0  0
  6  7  1  0  0  0
  6 11  2  0  0  0
  6 27  1  0  0  0
  7  8  2  0  0  0
  7 36  1  0  0  0
  8  9  1  0  0  0
  8 37  1  0  0  0
  9 10  2  0  0  0
  9 12  1  0  0  0
 10 11  1  0  0  0
 10 38  1  0  0  0
 11 39  1  0  0  0
 12 29  1  0  0  0
 13 14  1  0  0  0
 13 29  2  0  0  0
 13 40  1  0  0  0
 14 30  2  0  0  0
 14 41  1  0  0  0
 15 16  2  0  0  0
 15 30  1  0  0  0
 15 31  1  0  0  0
 16 29  1  0  0  0
 16 42  1  0  0  0
 17 18  1  0  0  0
 17 31  1  0  0  0
 17 43  1  0  0  0
 18 44  1  0  0  0
 18 45  1  0  0  0
 18 46  1  0  0  0
 19 20  1  0  0  0
 19 25  1  0  0  0
 20 21  1  0  0  0
 21 22  1  0  0  0
 21 23  1  0  0  0
 21 24  1  0  0  0
 26 47  1  0  0  0
 27 48  1  0  0  0
 31 32  2  0  0  0
M  END
> <s_m_entry_id>
122

> <s_m_entry_name>
1uwh.1_ligand

> <s_m_subgroup_title>
1UWH - minimized_split_by_structure

> <s_m_subgroupid>
1UWH - minimized_split_by_structure

> <b_m_subgroup_collapsed>
0

$$$$
