3RCD - minimized_ligand
                    3D
 Structure written by MMmdl.
 63 66  0  0  1  0            999 V2000
   14.8898   -0.2989   28.2873 N   0  0  0  0  0  0
   15.1502    4.5199   24.0843 N   0  0  0  0  0  0
   18.0826    1.2406   25.4224 C   0  0  0  0  0  0
   18.2429   -0.0449   25.8729 C   0  0  0  0  0  0
   16.5078    3.1498   25.6605 C   0  0  0  0  0  0
   15.5606    3.1664   24.4452 C   0  0  0  0  0  0
   14.3228    5.2806   24.8215 C   0  0  0  0  0  0
   13.2311    2.0455   28.6053 C   0  0  0  0  0  0
   11.1033    2.2595   30.4020 C   0  0  0  0  0  0
   11.9815    2.4695   28.1544 C   0  0  0  0  0  0
    7.8305    1.7781   31.7532 C   0  0  0  0  0  0
    8.4487   -0.9407   31.4884 C   0  0  0  0  0  0
    9.4346    0.0339   31.2860 C   0  0  0  0  0  0
    8.7962   -2.4217   31.3687 C   0  0  0  0  0  0
   16.4547    7.5228   23.7670 C   0  0  0  0  0  0
    9.9236   -2.6997   32.0249 F   0  0  0  0  0  0
    7.8319   -3.2075   31.8524 F   0  0  0  0  0  0
    8.9685   -2.7103   30.0831 F   0  0  0  0  0  0
    7.1512   -0.5359   31.8203 C   0  0  0  0  0  0
    6.8474    0.8161   31.9621 C   0  0  0  0  0  0
    9.1278    1.3989   31.4124 C   0  0  0  0  0  0
   10.0566    2.4046   31.2759 O   0  0  0  0  0  0
   12.3611    1.8636   30.8608 C   0  0  0  0  0  0
   12.6241    1.5218   32.5341 Cl  0  0  0  0  0  0
   13.4170    1.7551   29.9625 C   0  0  0  0  0  0
   10.9181    2.5625   29.0525 C   0  0  0  0  0  0
   14.2901    1.9146   27.6990 N   0  0  0  0  0  0
   15.1714    0.8320   27.5792 C   0  0  0  0  0  0
   15.7171   -1.3578   28.1653 C   0  0  0  0  0  0
   16.3225    0.8512   26.7716 C   0  0  0  0  0  0
   17.1327   -0.3209   26.7196 C   0  0  0  0  0  0
   16.8312   -1.4279   27.4028 N   0  0  0  0  0  0
   16.9431    1.7954   25.9565 N   0  0  0  0  0  0
   13.7734    4.8780   25.8476 O   0  0  0  0  0  0
   14.0571    6.7101   24.3230 C   0  0  0  0  0  0
   15.1740    7.7653   24.5956 C   0  0  0  0  0  0
   15.5571    7.7504   25.9578 O   0  0  0  0  0  0
   14.6221    9.1810   24.3292 C   0  0  0  0  0  0
   15.5526    4.9111   23.2453 H   0  0  0  0  0  0
   18.7077    1.8290   24.7658 H   0  0  0  0  0  0
   19.0758   -0.6773   25.6334 H   0  0  0  0  0  0
   16.0422    3.5698   26.5493 H   0  0  0  0  0  0
   17.3891    3.7625   25.4606 H   0  0  0  0  0  0
   16.0546    2.7295   23.5759 H   0  0  0  0  0  0
   14.6666    2.5723   24.6437 H   0  0  0  0  0  0
   11.8231    2.7115   27.1132 H   0  0  0  0  0  0
    7.5860    2.8239   31.8667 H   0  0  0  0  0  0
   10.4410   -0.2742   31.0429 H   0  0  0  0  0  0
   17.1914    8.3118   23.9266 H   0  0  0  0  0  0
   16.9406    6.5826   24.0310 H   0  0  0  0  0  0
   16.2368    7.4929   22.6987 H   0  0  0  0  0  0
    6.3704   -1.2648   31.9730 H   0  0  0  0  0  0
    5.8435    1.1182   32.2226 H   0  0  0  0  0  0
   14.3850    1.4478   30.3267 H   0  0  0  0  0  0
    9.9491    2.8882   28.7159 H   0  0  0  0  0  0
   14.2836    2.5564   26.9186 H   0  0  0  0  0  0
   15.4505   -2.2434   28.7223 H   0  0  0  0  0  0
   13.1251    7.0394   24.7866 H   0  0  0  0  0  0
   13.8433    6.6708   23.2534 H   0  0  0  0  0  0
   14.7795    7.9177   26.4948 H   0  0  0  0  0  0
   13.7645    9.4092   24.9641 H   0  0  0  0  0  0
   15.3686    9.9543   24.5087 H   0  0  0  0  0  0
   14.2953    9.2865   23.2942 H   0  0  0  0  0  0
  1 28  2  0  0  0
  1 29  1  0  0  0
  2  6  1  0  0  0
  2  7  1  0  0  0
  2 39  1  0  0  0
  3  4  2  0  0  0
  3 33  1  0  0  0
  3 40  1  0  0  0
  4 31  1  0  0  0
  4 41  1  0  0  0
  5  6  1  0  0  0
  5 33  1  0  0  0
  5 42  1  0  0  0
  5 43  1  0  0  0
  6 44  1  0  0  0
  6 45  1  0  0  0
  7 34  2  0  0  0
  7 35  1  0  0  0
  8 10  2  0  0  0
  8 25  1  0  0  0
  8 27  1  0  0  0
  9 22  1  0  0  0
  9 23  1  0  0  0
  9 26  2  0  0  0
 10 26  1  0  0  0
 10 46  1  0  0  0
 11 20  1  0  0  0
 11 21  2  0  0  0
 11 47  1  0  0  0
 12 13  2  0  0  0
 12 14  1  0  0  0
 12 19  1  0  0  0
 13 21  1  0  0  0
 13 48  1  0  0  0
 14 16  1  0  0  0
 14 17  1  0  0  0
 14 18  1  0  0  0
 15 36  1  0  0  0
 15 49  1  0  0  0
 15 50  1  0  0  0
 15 51  1  0  0  0
 19 20  2  0  0  0
 19 52  1  0  0  0
 20 53  1  0  0  0
 21 22  1  0  0  0
 23 24  1  0  0  0
 23 25  2  0  0  0
 25 54  1  0  0  0
 26 55  1  0  0  0
 27 28  1  0  0  0
 27 56  1  0  0  0
 28 30  1  0  0  0
 29 32  2  0  0  0
 29 57  1  0  0  0
 30 31  2  0  0  0
 30 33  1  0  0  0
 31 32  1  0  0  0
 35 36  1  0  0  0
 35 58  1  0  0  0
 35 59  1  0  0  0
 36 37  1  0  0  0
 36 38  1  0  0  0
 37 60  1  0  0  0
 38 61  1  0  0  0
 38 62  1  0  0  0
 38 63  1  0  0  0
M  END
> <s_m_entry_id>
102

> <s_m_entry_name>
3rcd.1_ligand

> <s_m_subgroup_title>
3RCD - minimized_split_by_structure

> <s_m_subgroupid>
3RCD - minimized_split_by_structure

> <b_m_subgroup_collapsed>
0

$$$$
