7S1S - minimized_ligand
                    3D
 Structure written by MMmdl.
 52 56  0  0  1  0            999 V2000
  -33.5393  -49.2757   -9.8622 N   0  0  0  0  0  0
  -32.8757  -41.3552   -9.3032 N   0  3  0  0  0  0
  -30.8149  -46.8032  -10.2273 C   0  0  0  0  0  0
  -28.7253  -45.7862  -10.9304 C   0  0  0  0  0  0
  -30.5483  -44.3818  -10.1426 C   0  0  0  0  0  0
  -32.4809  -49.9821   -9.4519 N   0  0  0  0  0  0
  -32.6782  -51.3557   -9.0178 C   0  0  0  0  0  0
  -27.1649  -43.3360  -11.1640 O   0  0  0  0  0  0
  -33.0479  -48.1060  -10.1850 C   0  0  0  0  0  0
  -31.6607  -48.0109   -9.9849 C   0  0  0  0  0  0
  -29.5139  -46.9141  -10.7265 C   0  0  0  0  0  0
  -31.3282  -45.5308   -9.9470 C   0  0  0  0  0  0
  -31.0176  -43.0069   -9.8627 C   0  0  0  0  0  0
  -32.4407  -42.8293   -9.3456 C   0  0  0  0  0  0
  -29.2354  -44.5207  -10.6335 C   0  0  0  0  0  0
  -28.3415  -43.3106  -10.8221 C   0  0  0  0  0  0
  -31.3019  -49.2714   -9.4909 C   0  0  0  0  0  0
  -29.9849  -49.8364   -9.0442 C   0  0  0  0  0  0
  -29.6888  -49.7832   -7.6749 C   0  0  0  0  0  0
  -28.4612  -50.2381   -7.2010 C   0  0  0  0  0  0
  -27.5257  -50.7599   -8.0867 C   0  0  0  0  0  0
  -27.7849  -50.8248   -9.4644 C   0  0  0  0  0  0
  -25.5036  -51.4604   -9.9514 C   0  0  0  0  0  0
  -25.1541  -52.7859   -9.3297 C   0  0  0  0  0  0
  -24.6394  -52.4396  -10.7051 C   0  0  0  0  0  0
  -29.0389  -50.3833   -9.9361 C   0  0  0  0  0  0
  -29.3380  -50.4998  -11.3632 C   0  0  0  0  0  0
  -30.5909  -49.2957   -6.7948 F   0  0  0  0  0  0
  -30.2759  -41.9755  -10.0522 N   0  0  0  0  0  0
  -28.9930  -42.1524  -10.5268 N   0  0  0  0  0  0
  -29.5776  -50.5809  -12.4899 N   0  0  0  0  0  0
  -26.8506  -51.2874  -10.3806 O   0  0  0  0  0  0
  -28.0760  -50.1408   -5.5186 Cl  0  0  0  0  0  0
  -33.8722  -41.3124   -9.1230 H   0  0  0  0  0  0
  -32.3738  -40.8448   -8.5903 H   0  0  0  0  0  0
  -32.6917  -40.9198  -10.1962 H   0  0  0  0  0  0
  -27.7189  -45.9059  -11.3057 H   0  0  0  0  0  0
  -32.0192  -52.0063   -9.5917 H   0  0  0  0  0  0
  -32.4415  -51.4378   -7.9563 H   0  0  0  0  0  0
  -33.7079  -51.6742   -9.1808 H   0  0  0  0  0  0
  -33.6876  -47.3148  -10.5522 H   0  0  0  0  0  0
  -29.0924  -47.8744  -10.9616 H   0  0  0  0  0  0
  -32.3356  -45.4503   -9.5635 H   0  0  0  0  0  0
  -33.1442  -43.2949  -10.0309 H   0  0  0  0  0  0
  -32.5863  -43.2141   -8.3355 H   0  0  0  0  0  0
  -26.5827  -51.0976   -7.6824 H   0  0  0  0  0  0
  -25.0592  -50.5294   -9.5990 H   0  0  0  0  0  0
  -25.9403  -53.5342   -9.2362 H   0  0  0  0  0  0
  -24.4558  -52.8006   -8.4923 H   0  0  0  0  0  0
  -23.5735  -52.2430  -10.8102 H   0  0  0  0  0  0
  -25.0539  -52.9613  -11.5628 H   0  0  0  0  0  0
  -28.4739  -41.2887  -10.6428 H   0  0  0  0  0  0
  1  6  1  0  0  0
  1  9  2  0  0  0
  2 14  1  0  0  0
  2 34  1  0  0  0
  2 35  1  0  0  0
  2 36  1  0  0  0
  3 10  1  0  0  0
  3 11  1  0  0  0
  3 12  2  0  0  0
  4 11  2  0  0  0
  4 15  1  0  0  0
  4 37  1  0  0  0
  5 12  1  0  0  0
  5 13  1  0  0  0
  5 15  2  0  0  0
  6  7  1  0  0  0
  6 17  1  0  0  0
  7 38  1  0  0  0
  7 39  1  0  0  0
  7 40  1  0  0  0
  8 16  2  0  0  0
  9 10  1  0  0  0
  9 41  1  0  0  0
 10 17  2  0  0  0
 11 42  1  0  0  0
 12 43  1  0  0  0
 13 14  1  0  0  0
 13 29  2  0  0  0
 14 44  1  0  0  0
 14 45  1  0  0  0
 15 16  1  0  0  0
 16 30  1  0  0  0
 17 18  1  0  0  0
 18 19  1  0  0  0
 18 26  2  0  0  0
 19 20  2  0  0  0
 19 28  1  0  0  0
 20 21  1  0  0  0
 20 33  1  0  0  0
 21 22  2  0  0  0
 21 46  1  0  0  0
 22 26  1  0  0  0
 22 32  1  0  0  0
 23 24  1  0  0  0
 23 25  1  0  0  0
 23 32  1  0  0  0
 23 47  1  0  0  0
 24 25  1  0  0  0
 24 48  1  0  0  0
 24 49  1  0  0  0
 25 50  1  0  0  0
 25 51  1  0  0  0
 26 27  1  0  0  0
 27 31  3  0  0  0
 29 30  1  0  0  0
 30 52  1  0  0  0
M  CHG  1   2   1
M  END
> <s_m_entry_id>
150

> <s_m_entry_name>
7s1s.1_ligand

> <s_m_subgroup_title>
7S1S - minimized_split_by_structure

> <s_m_subgroupid>
7S1S - minimized_split_by_structure

> <b_m_subgroup_collapsed>
0

$$$$
