REMARK SMILES C[C@H](O)C=Cc1ccccc1
REMARK SMILES IDX 2 1 1 2 4 3 5 4 6 5 11 6 10 7 7 8 9 9 8 10 3 11
REMARK H PARENT 3 12
REMARK Flexibility Score: inf
ROOT
ATOM      1  C   UNL     1      28.360   1.648   4.187  1.00  0.00     0.134 C 
ATOM      2  C   UNL     1      27.753   0.279   4.643  1.00  0.00     0.043 C 
ENDROOT
BRANCH   1   3
ATOM      3  C   UNL     1      27.221   2.478   4.246  1.00  0.00     0.004 C 
ATOM      4  C   UNL     1      27.433   3.849   3.856  1.00  0.00     0.006 C 
BRANCH   4   5
ATOM      5  C   UNL     1      26.197   4.784   3.953  1.00  0.00    -0.026 A 
ATOM      6  C   UNL     1      26.347   6.095   3.725  1.00  0.00     0.008 A 
ATOM      7  C   UNL     1      25.333   6.859   3.752  1.00  0.00     0.001 A 
ATOM      8  C   UNL     1      25.016   4.164   4.347  1.00  0.00     0.008 A 
ATOM      9  C   UNL     1      24.247   6.307   3.990  1.00  0.00     0.000 A 
ATOM     10  C   UNL     1      23.878   4.975   4.381  1.00  0.00     0.001 A 
ENDBRANCH   4   5
ENDBRANCH   1   3
BRANCH   1  11
ATOM     11  O   UNL     1      29.518   1.915   4.692  1.00  0.00    -0.389 OA
ATOM     12  H   UNL     1       0.000   0.000   0.000  1.00  0.00     0.211 HD
ENDBRANCH   1  11
TORSDOF 3
