REMARK SMILES Cc1ccc(C2=CC(O)C=C2)c(C)c1C
REMARK SMILES IDX 6 1 11 2 7 3 10 4 8 5 5 6 15 7 14 8 12 9 2 10 13 11 1 12
REMARK SMILES IDX 3 13 4 14 9 15
REMARK H PARENT 9 16
REMARK Flexibility Score: inf
ROOT
ATOM      1  C   UNL     1      27.819   1.464   4.169  1.00  0.00    -0.019 C 
ATOM      2  C   UNL     1      29.073   1.625   4.364  1.00  0.00     0.007 C 
ATOM      3  C   UNL     1      27.351   0.125   3.938  1.00  0.00     0.017 C 
ATOM      4  C   UNL     1      29.698   0.332   4.246  1.00  0.00     0.009 C 
ATOM      5  C   UNL     1      28.660  -0.593   3.947  1.00  0.00     0.161 C 
ENDROOT
BRANCH   1   6
ATOM      6  C   UNL     1      26.864   2.436   4.236  1.00  0.00    -0.015 A 
ATOM      7  C   UNL     1      26.347   6.095   3.725  1.00  0.00     0.045 C 
ATOM      8  C   UNL     1      26.197   4.784   3.953  1.00  0.00    -0.045 A 
ATOM      9  C   UNL     1      27.125   3.888   3.949  1.00  0.00    -0.040 A 
ATOM     10  C   UNL     1      24.840   4.361   4.299  1.00  0.00    -0.048 A 
ATOM     11  C   UNL     1      28.486   4.162   3.579  1.00  0.00     0.045 C 
ATOM     12  C   UNL     1      23.921   5.319   4.439  1.00  0.00     0.044 C 
ATOM     13  C   UNL     1      24.477   3.061   4.621  1.00  0.00     0.004 A 
ATOM     14  C   UNL     1      25.601   2.307   4.897  1.00  0.00     0.009 A 
ENDBRANCH   1   6
BRANCH   5  15
ATOM     15  O   UNL     1      28.839  -1.874   3.705  1.00  0.00    -0.385 OA
ATOM     16  H   UNL     1       0.000   0.000   0.000  1.00  0.00     0.211 HD
ENDBRANCH   5  15
TORSDOF 2
