REMARK SMILES CC=C(C)c1ccc2cccc(O)c2c1
REMARK SMILES IDX 12 1 14 2 8 3 15 4 5 5 9 6 6 7 11 8 10 9 7 10 13 11 3 13
REMARK SMILES IDX 2 14 4 15 1 16
REMARK H PARENT 13 12
REMARK Flexibility Score: inf
ROOT
ATOM      1  C   UNL     1      26.347   6.095   3.725  1.00  0.00     0.123 A 
ATOM      2  C   UNL     1      26.197   4.784   3.953  1.00  0.00     0.024 A 
ATOM      3  C   UNL     1      25.016   4.164   4.347  1.00  0.00    -0.015 A 
ATOM      4  C   UNL     1      27.396   3.807   4.047  1.00  0.00     0.021 A 
ATOM      5  C   UNL     1      27.285   2.486   4.351  1.00  0.00    -0.022 A 
ATOM      6  C   UNL     1      23.892   5.026   4.360  1.00  0.00     0.009 A 
ATOM      7  C   UNL     1      25.894   2.030   4.338  1.00  0.00     0.009 A 
ATOM      8  C   UNL     1      25.218   6.816   3.850  1.00  0.00     0.047 A 
ATOM      9  C   UNL     1      23.995   6.357   4.300  1.00  0.00     0.004 A 
ATOM     10  C   UNL     1      24.828   2.802   4.409  1.00  0.00     0.009 A 
ENDROOT
BRANCH   1  11
ATOM     11  O   UNL     1      27.468   6.715   3.392  1.00  0.00    -0.507 OA
ATOM     12  H   UNL     1       0.000   0.000   0.000  1.00  0.00     0.293 HD
ENDBRANCH   1  11
BRANCH   5  13
ATOM     13  C   UNL     1      28.419   1.624   4.358  1.00  0.00    -0.048 C 
ATOM     14  C   UNL     1      28.260   0.280   3.916  1.00  0.00    -0.027 C 
ATOM     15  C   UNL     1      29.636   2.016   4.892  1.00  0.00     0.044 C 
ATOM     16  C   UNL     1      29.351  -0.603   4.191  1.00  0.00     0.036 C 
ENDBRANCH   5  13
TORSDOF 2
