REMARK SMILES C=CCc1ccc2cc(O)ccc2c1O
REMARK SMILES IDX 12 1 13 2 14 3 7 4 4 5 11 6 5 7 9 8 6 9 8 10 15 11 10 13
REMARK SMILES IDX 3 15 2 16 1 17
REMARK H PARENT 15 12 10 14
REMARK Flexibility Score: inf
ROOT
ATOM      1  C   UNL     1      26.347   6.095   3.725  1.00  0.00     0.016 A 
ATOM      2  C   UNL     1      26.197   4.784   3.953  1.00  0.00     0.024 A 
ATOM      3  C   UNL     1      27.397   3.921   3.862  1.00  0.00     0.126 A 
ATOM      4  C   UNL     1      25.003   4.103   4.072  1.00  0.00    -0.011 A 
ATOM      5  C   UNL     1      27.198   2.501   4.134  1.00  0.00    -0.002 A 
ATOM      6  C   UNL     1      25.358   6.934   4.118  1.00  0.00     0.047 A 
ATOM      7  C   UNL     1      25.937   1.977   4.333  1.00  0.00     0.008 A 
ATOM      8  C   UNL     1      24.102   6.372   4.444  1.00  0.00     0.116 A 
ATOM      9  C   UNL     1      24.837   2.778   4.310  1.00  0.00     0.009 A 
ATOM     10  C   UNL     1      23.892   5.027   4.438  1.00  0.00     0.055 A 
ENDROOT
BRANCH   3  11
ATOM     11  O   UNL     1      28.621   4.328   3.681  1.00  0.00    -0.507 OA
ATOM     12  H   UNL     1       0.000   0.000   0.000  1.00  0.00     0.293 HD
ENDBRANCH   3  11
BRANCH   8  13
ATOM     13  O   UNL     1      23.006   7.145   4.620  1.00  0.00    -0.508 OA
ATOM     14  H   UNL     1       0.000   0.000   0.000  1.00  0.00     0.293 HD
ENDBRANCH   8  13
BRANCH   5  15
ATOM     15  C   UNL     1      28.439   1.583   4.154  1.00  0.00     0.066 C 
BRANCH  15  16
ATOM     16  C   UNL     1      28.145   0.232   3.779  1.00  0.00    -0.030 C 
ATOM     17  C   UNL     1      28.453  -0.805   4.292  1.00  0.00     0.004 C 
ENDBRANCH  15  16
ENDBRANCH   5  15
TORSDOF 4
