REMARK SMILES CC1=CC(c2c(O)cccc2O)=C[C@H]1C
REMARK SMILES IDX 5 1 6 2 11 3 8 4 9 5 10 6 4 7 1 8 2 9 3 10 14 11 15 12 13 13
REMARK SMILES IDX 7 14 12 16
REMARK H PARENT 7 15 12 17
REMARK Flexibility Score: inf
ROOT
ATOM      1  C   UNL     1      28.160   1.585   4.179  1.00  0.00     0.065 A 
ATOM      2  C   UNL     1      29.352   1.769   4.585  1.00  0.00     0.127 A 
ATOM      3  C   UNL     1      27.734   0.175   3.893  1.00  0.00     0.127 A 
ATOM      4  C   UNL     1      30.292   0.689   4.533  1.00  0.00     0.047 A 
ATOM      5  C   UNL     1      29.919  -0.547   4.062  1.00  0.00     0.008 A 
ATOM      6  C   UNL     1      28.585  -0.850   3.698  1.00  0.00     0.047 A 
ENDROOT
BRANCH   1   7
ATOM      7  C   UNL     1      27.079   2.545   4.260  1.00  0.00    -0.014 C 
ATOM      8  C   UNL     1      26.347   6.095   3.725  1.00  0.00     0.040 C 
ATOM      9  C   UNL     1      26.197   4.784   3.953  1.00  0.00    -0.066 C 
ATOM     10  C   UNL     1      27.397   3.921   3.862  1.00  0.00     0.008 C 
ATOM     11  C   UNL     1      25.010   4.113   4.264  1.00  0.00     0.035 C 
ATOM     12  C   UNL     1      23.832   4.649   4.443  1.00  0.00     0.017 C 
ATOM     13  C   UNL     1      25.666   2.617   4.449  1.00  0.00    -0.011 C 
ENDBRANCH   1   7
BRANCH   2  14
ATOM     14  O   UNL     1      29.777   2.909   5.242  1.00  0.00    -0.507 OA
ATOM     15  H   UNL     1       0.000   0.000   0.000  1.00  0.00     0.293 HD
ENDBRANCH   2  14
BRANCH   3  16
ATOM     16  O   UNL     1      26.409  -0.193   3.553  1.00  0.00    -0.507 OA
ATOM     17  H   UNL     1       0.000   0.000   0.000  1.00  0.00     0.293 HD
ENDBRANCH   3  16
TORSDOF 3
