REMARK SMILES Cc1ccc(-c2ccn(O)c2)c(C)c1C
REMARK SMILES IDX 6 1 7 2 11 3 8 4 9 5 5 6 15 7 14 8 12 9 2 10 13 11 1 12 3 13
REMARK SMILES IDX 4 14 10 15
REMARK H PARENT 10 16
REMARK Flexibility Score: inf
ROOT
ATOM      1  C   UNL     1      27.819   1.464   4.169  1.00  0.00     0.003 A 
ATOM      2  C   UNL     1      29.073   1.625   4.364  1.00  0.00     0.032 A 
ATOM      3  C   UNL     1      27.351   0.125   3.938  1.00  0.00     0.137 A 
ATOM      4  C   UNL     1      29.688   0.298   4.317  1.00  0.00     0.129 A 
ATOM      5  N   UNL     1      28.599  -0.592   3.968  1.00  0.00    -0.201 N 
ENDROOT
BRANCH   1   6
ATOM      6  C   UNL     1      26.864   2.436   4.236  1.00  0.00    -0.014 A 
ATOM      7  C   UNL     1      26.347   6.095   3.725  1.00  0.00     0.045 C 
ATOM      8  C   UNL     1      26.197   4.784   3.953  1.00  0.00    -0.045 A 
ATOM      9  C   UNL     1      27.125   3.888   3.949  1.00  0.00    -0.040 A 
ATOM     10  C   UNL     1      24.840   4.361   4.299  1.00  0.00    -0.048 A 
ATOM     11  C   UNL     1      28.486   4.162   3.579  1.00  0.00     0.045 C 
ATOM     12  C   UNL     1      23.921   5.319   4.439  1.00  0.00     0.044 C 
ATOM     13  C   UNL     1      24.538   3.138   4.819  1.00  0.00     0.004 A 
ATOM     14  C   UNL     1      25.601   2.307   4.897  1.00  0.00     0.009 A 
ENDBRANCH   1   6
BRANCH   5  15
ATOM     15  O   UNL     1      28.687  -1.992   3.712  1.00  0.00    -0.429 OA
ATOM     16  H   UNL     1       0.000   0.000   0.000  1.00  0.00     0.327 HD
ENDBRANCH   5  15
TORSDOF 2
