4P7E - minimized_ligand
                    3D
 Structure written by MMmdl.
 54 58  0  0  1  0            999 V2000
    0.3179   47.4835    7.6088 C   0  0  0  0  0  0
   -0.7539   49.3817   10.0641 C   0  0  0  0  0  0
   -0.5467   51.8950    8.3516 C   0  0  0  0  0  0
    0.5691   50.0976   10.3688 C   0  0  0  0  0  0
   -0.4610   50.5199    7.6810 C   0  0  0  0  0  0
   -1.0733   48.0498    7.8690 C   0  0  0  0  0  0
    0.9424   46.7054    8.5830 C   0  0  0  0  0  0
    2.2013   46.1712    8.3385 C   0  0  0  0  0  0
    2.8486   46.3882    7.1156 C   0  0  0  0  0  0
    2.2052   47.1531    6.1363 C   0  0  0  0  0  0
    0.9455   47.6945    6.3779 C   0  0  0  0  0  0
    4.2092   45.8154    6.9096 C   0  0  0  0  0  0
    5.1811   45.8612    7.9141 C   0  0  0  0  0  0
    6.4039   45.2212    7.7467 C   0  0  0  0  0  0
    6.6916   44.5264    6.5731 C   0  0  0  0  0  0
    5.7572   44.5247    5.5283 C   0  0  0  0  0  0
    4.5834   44.3028    3.8123 C   0  0  0  0  0  0
    3.1798   44.2037    1.7967 C   0  0  0  0  0  0
    3.1063   43.4998    0.4261 C   0  0  0  0  0  0
    1.7149   43.2103   -0.1168 C   0  0  0  0  0  0
    2.5406   44.3003   -0.7350 C   0  0  0  0  0  0
    1.8473   52.3699    9.5914 O   0  0  0  0  0  0
    0.4908   51.9233    9.9198 S   0  0  0  0  0  0
   -0.2491   52.6493   10.9563 O   0  0  0  0  0  0
   -1.1357   49.4388    8.5596 N   0  3  0  0  0  0
    4.5399   45.1758    5.7275 N   0  0  0  0  0  0
    3.7938   45.0083    4.6121 N   0  0  0  0  0  0
    4.2618   43.8755    2.5348 N   0  0  0  0  0  0
    2.2940   44.9817    2.1585 O   0  0  0  0  0  0
    5.7659   43.9665    4.2933 N   0  0  0  0  0  0
   -1.5845   49.8596   10.5862 H   0  0  0  0  0  0
   -0.7356   48.3389   10.3842 H   0  0  0  0  0  0
   -1.5753   52.1430    8.6145 H   0  0  0  0  0  0
   -0.1760   52.6865    7.7030 H   0  0  0  0  0  0
    1.4009   49.6372    9.8352 H   0  0  0  0  0  0
    0.7887   50.0597   11.4309 H   0  0  0  0  0  0
    0.5698   50.2234    7.4841 H   0  0  0  0  0  0
   -1.0232   50.5069    6.7506 H   0  0  0  0  0  0
   -1.6633   47.3833    8.5022 H   0  0  0  0  0  0
   -1.6205   48.1823    6.9337 H   0  0  0  0  0  0
    0.4595   46.5105    9.5296 H   0  0  0  0  0  0
    2.6706   45.5744    9.1076 H   0  0  0  0  0  0
    2.6840   47.3441    5.1872 H   0  0  0  0  0  0
    0.4644   48.2808    5.6085 H   0  0  0  0  0  0
    4.9787   46.3643    8.8501 H   0  0  0  0  0  0
    7.1277   45.2356    8.5480 H   0  0  0  0  0  0
    7.6120   43.9916    6.4794 H   0  0  0  0  0  0
    3.8979   42.7789    0.2140 H   0  0  0  0  0  0
    0.8248   43.5123    0.4372 H   0  0  0  0  0  0
    1.5640   42.2816   -0.6682 H   0  0  0  0  0  0
    2.9701   44.1421   -1.7244 H   0  0  0  0  0  0
    2.1831   45.3184   -0.6042 H   0  0  0  0  0  0
   -2.1180   49.6781    8.5593 H   0  0  0  0  0  0
    4.9177   43.2232    2.1297 H   0  0  0  0  0  0
  1  6  1  0  0  0
  1  7  2  0  0  0
  1 11  1  0  0  0
  2  4  1  0  0  0
  2 25  1  0  0  0
  2 31  1  0  0  0
  2 32  1  0  0  0
  3  5  1  0  0  0
  3 23  1  0  0  0
  3 33  1  0  0  0
  3 34  1  0  0  0
  4 23  1  0  0  0
  4 35  1  0  0  0
  4 36  1  0  0  0
  5 25  1  0  0  0
  5 37  1  0  0  0
  5 38  1  0  0  0
  6 25  1  0  0  0
  6 39  1  0  0  0
  6 40  1  0  0  0
  7  8  1  0  0  0
  7 41  1  0  0  0
  8  9  2  0  0  0
  8 42  1  0  0  0
  9 10  1  0  0  0
  9 12  1  0  0  0
 10 11  2  0  0  0
 10 43  1  0  0  0
 11 44  1  0  0  0
 12 13  2  0  0  0
 12 26  1  0  0  0
 13 14  1  0  0  0
 13 45  1  0  0  0
 14 15  2  0  0  0
 14 46  1  0  0  0
 15 16  1  0  0  0
 15 47  1  0  0  0
 16 26  1  0  0  0
 16 30  2  0  0  0
 17 27  2  0  0  0
 17 28  1  0  0  0
 17 30  1  0  0  0
 18 19  1  0  0  0
 18 28  1  0  0  0
 18 29  2  0  0  0
 19 20  1  0  0  0
 19 21  1  0  0  0
 19 48  1  0  0  0
 20 21  1  0  0  0
 20 49  1  0  0  0
 20 50  1  0  0  0
 21 51  1  0  0  0
 21 52  1  0  0  0
 22 23  2  0  0  0
 23 24  2  0  0  0
 25 53  1  0  0  0
 26 27  1  0  0  0
 28 54  1  0  0  0
M  CHG  1  25   1
M  END
> <s_m_entry_id>
112

> <s_m_entry_name>
4p7e.1_ligand

> <s_m_subgroup_title>
4P7E - minimized_split_by_structure

> <s_m_subgroupid>
4P7E - minimized_split_by_structure

> <b_m_subgroup_collapsed>
0

$$$$
