3L0E - minimized_ligand
                    3D
 Structure written by MMmdl.
 59 62  0  0  1  0            999 V2000
   10.1262  -29.3325   -4.8051 C   0  0  0  0  0  0
   15.1207  -34.5487   -5.5474 F   0  0  0  0  0  0
   10.2682  -30.6104   -4.1409 N   0  0  0  0  0  0
   12.4862  -32.3252   -0.7317 O   0  0  0  0  0  0
   11.7455  -33.2575   -1.5919 S   0  0  0  0  0  0
   15.5373  -34.0253   -0.4657 Cl  0  0  0  0  0  0
    9.7477  -31.8201   -4.5285 C   0  0  0  0  0  0
   10.1138  -32.8135   -3.7534 N   0  0  0  0  0  0
   10.7512  -34.1857   -1.0452 O   0  0  0  0  0  0
   14.3738  -44.2760   -3.9703 S   0  0  0  0  0  0
   10.9024  -32.2600   -2.8438 C   0  0  0  0  0  0
   12.8905  -34.1555   -2.6133 N   0  0  0  0  0  0
   14.9212  -44.7102   -5.2596 O   0  0  0  0  0  0
   10.9943  -30.8884   -3.0146 C   0  0  0  0  0  0
   14.5033  -45.1277   -2.7859 O   0  0  0  0  0  0
   12.3259  -35.2455   -3.4525 C   0  0  0  0  0  0
   13.0760  -36.5691   -3.3859 C   0  0  0  0  0  0
   13.7545  -36.9628   -2.2292 C   0  0  0  0  0  0
   14.4304  -38.1752   -2.1995 C   0  0  0  0  0  0
   14.4027  -39.0262   -3.3071 C   0  0  0  0  0  0
   13.6845  -38.6482   -4.4456 C   0  0  0  0  0  0
   13.0315  -37.4209   -4.4895 C   0  0  0  0  0  0
   15.1324  -40.3148   -3.2698 C   0  0  0  0  0  0
   16.4690  -40.3575   -2.8616 C   0  0  0  0  0  0
   17.1585  -41.5647   -2.8241 C   0  0  0  0  0  0
   16.5119  -42.7527   -3.1595 C   0  0  0  0  0  0
   15.1775  -42.7287   -3.5677 C   0  0  0  0  0  0
   14.5003  -41.5077   -3.6379 C   0  0  0  0  0  0
   12.5487  -43.8832   -4.1987 C   0  0  0  0  0  0
   14.0855  -33.4308   -3.1303 C   0  0  0  0  0  0
   15.3547  -34.2820   -3.1815 C   0  0  0  0  0  0
   15.8104  -34.7874   -4.4079 C   0  0  0  0  0  0
   16.9756  -35.5536   -4.4657 C   0  0  0  0  0  0
   17.6991  -35.8169   -3.3042 C   0  0  0  0  0  0
   17.2506  -35.3258   -2.0801 C   0  0  0  0  0  0
   16.0806  -34.5674   -2.0129 C   0  0  0  0  0  0
   10.7024  -28.5684   -4.2817 H   0  0  0  0  0  0
   10.5043  -29.4327   -5.8197 H   0  0  0  0  0  0
    9.0810  -29.0361   -4.8328 H   0  0  0  0  0  0
    9.1221  -31.8871   -5.4073 H   0  0  0  0  0  0
   11.5443  -30.1228   -2.4876 H   0  0  0  0  0  0
   12.2291  -34.8826   -4.4744 H   0  0  0  0  0  0
   11.3126  -35.4479   -3.1138 H   0  0  0  0  0  0
   13.7702  -36.3301   -1.3540 H   0  0  0  0  0  0
   14.9643  -38.4585   -1.3048 H   0  0  0  0  0  0
   13.6421  -39.2988   -5.3070 H   0  0  0  0  0  0
   12.4867  -37.1394   -5.3792 H   0  0  0  0  0  0
   16.9810  -39.4483   -2.5798 H   0  0  0  0  0  0
   18.1914  -41.5662   -2.5241 H   0  0  0  0  0  0
   17.0410  -43.6918   -3.0943 H   0  0  0  0  0  0
   13.4699  -41.4701   -3.9476 H   0  0  0  0  0  0
   12.1723  -43.4310   -3.2872 H   0  0  0  0  0  0
   12.4310  -43.2148   -5.0483 H   0  0  0  0  0  0
   12.0075  -44.8084   -4.3692 H   0  0  0  0  0  0
   14.2781  -32.5692   -2.4910 H   0  0  0  0  0  0
   13.8428  -33.0191   -4.1092 H   0  0  0  0  0  0
   17.3190  -35.9460   -5.4115 H   0  0  0  0  0  0
   18.6034  -36.4053   -3.3500 H   0  0  0  0  0  0
   17.8073  -35.5424   -1.1799 H   0  0  0  0  0  0
  1  3  1  0  0  0
  1 37  1  0  0  0
  1 38  1  0  0  0
  1 39  1  0  0  0
  2 32  1  0  0  0
  3  7  1  0  0  0
  3 14  1  0  0  0
  4  5  2  0  0  0
  5  9  2  0  0  0
  5 11  1  0  0  0
  5 12  1  0  0  0
  6 36  1  0  0  0
  7  8  2  0  0  0
  7 40  1  0  0  0
  8 11  1  0  0  0
 10 13  2  0  0  0
 10 15  2  0  0  0
 10 27  1  0  0  0
 10 29  1  0  0  0
 11 14  2  0  0  0
 12 16  1  0  0  0
 12 30  1  0  0  0
 14 41  1  0  0  0
 16 17  1  0  0  0
 16 42  1  0  0  0
 16 43  1  0  0  0
 17 18  2  0  0  0
 17 22  1  0  0  0
 18 19  1  0  0  0
 18 44  1  0  0  0
 19 20  2  0  0  0
 19 45  1  0  0  0
 20 21  1  0  0  0
 20 23  1  0  0  0
 21 22  2  0  0  0
 21 46  1  0  0  0
 22 47  1  0  0  0
 23 24  2  0  0  0
 23 28  1  0  0  0
 24 25  1  0  0  0
 24 48  1  0  0  0
 25 26  2  0  0  0
 25 49  1  0  0  0
 26 27  1  0  0  0
 26 50  1  0  0  0
 27 28  2  0  0  0
 28 51  1  0  0  0
 29 52  1  0  0  0
 29 53  1  0  0  0
 29 54  1  0  0  0
 30 31  1  0  0  0
 30 55  1  0  0  0
 30 56  1  0  0  0
 31 32  2  0  0  0
 31 36  1  0  0  0
 32 33  1  0  0  0
 33 34  2  0  0  0
 33 57  1  0  0  0
 34 35  1  0  0  0
 34 58  1  0  0  0
 35 36  2  0  0  0
 35 59  1  0  0  0
M  END
> <s_m_entry_id>
45

> <s_m_entry_name>
3l0e.1_ligand

> <s_m_subgroup_title>
3L0E - minimized_split_by_structure

> <s_m_subgroupid>
3L0E - minimized_split_by_structure

> <b_m_subgroup_collapsed>
0

$$$$
