6FFH - minimized_ligand
                    3D
 Structure written by MMmdl.
 28 29  0  0  1  0            999 V2000
  -24.7429   15.1802   40.4311 C   0  0  0  0  0  0
  -25.8285   13.2111   39.5715 C   0  0  0  0  0  0
  -25.4263   13.4278   41.9449 C   0  0  0  0  0  0
  -21.8032   17.7679   46.5354 C   0  0  0  0  0  0
  -22.8141   19.9480   45.9648 C   0  0  0  0  0  0
  -23.6510   20.3610   45.0147 C   0  0  0  0  0  0
  -23.5276   18.1060   44.7213 C   0  0  0  0  0  0
  -24.1485   16.6693   43.0007 C   0  0  0  0  0  0
  -24.8468   14.6799   41.7420 C   0  0  0  0  0  0
  -25.2436   14.4539   39.3555 C   0  0  0  0  0  0
  -25.9205   12.7012   40.8646 C   0  0  0  0  0  0
  -22.8287   18.5638   45.8789 N   0  0  0  0  0  0
  -24.1658   19.3090   44.3032 N   0  0  0  0  0  0
  -23.5353   16.9255   44.2161 N   0  0  0  0  0  0
  -24.3691   15.3512   42.8808 N   0  0  0  0  0  0
  -24.0104   21.5266   44.6164 O   0  5  0  0  0  0
  -24.3671   17.5080   42.1242 O   0  0  0  0  0  0
  -25.1465   15.0952   37.7595 Cl  0  0  0  0  0  0
  -24.2650   16.1219   40.2169 H   0  0  0  0  0  0
  -26.2101   12.6480   38.7359 H   0  0  0  0  0  0
  -25.5042   13.0133   42.9381 H   0  0  0  0  0  0
  -22.1040   16.7226   46.5936 H   0  0  0  0  0  0
  -20.8683   17.8165   45.9764 H   0  0  0  0  0  0
  -21.6203   18.1269   47.5493 H   0  0  0  0  0  0
  -22.2075   20.4820   46.6754 H   0  0  0  0  0  0
  -26.3840   11.7465   41.0379 H   0  0  0  0  0  0
  -24.7567   19.3980   43.4906 H   0  0  0  0  0  0
  -24.1915   14.7849   43.6955 H   0  0  0  0  0  0
  1  9  1  0  0  0
  1 10  2  0  0  0
  1 19  1  0  0  0
  2 10  1  0  0  0
  2 11  2  0  0  0
  2 20  1  0  0  0
  3  9  2  0  0  0
  3 11  1  0  0  0
  3 21  1  0  0  0
  4 12  1  0  0  0
  4 22  1  0  0  0
  4 23  1  0  0  0
  4 24  1  0  0  0
  5  6  2  0  0  0
  5 12  1  0  0  0
  5 25  1  0  0  0
  6 13  1  0  0  0
  6 16  1  0  0  0
  7 12  1  0  0  0
  7 13  1  0  0  0
  7 14  2  0  0  0
  8 14  1  0  0  0
  8 15  1  0  0  0
  8 17  2  0  0  0
  9 15  1  0  0  0
 10 18  1  0  0  0
 11 26  1  0  0  0
 13 27  1  0  0  0
 15 28  1  0  0  0
M  CHG  1  16  -1
M  END
> <s_m_entry_id>
67

> <s_m_entry_name>
6ffh.1_ligand

> <s_m_subgroup_title>
6FFH - minimized_split_by_structure

> <s_m_subgroupid>
6FFH - minimized_split_by_structure

> <b_m_subgroup_collapsed>
0

$$$$
