6GDQ - minimized_ligand
                    3D
 Structure written by MMmdl.
 51 53  0  0  1  0            999 V2000
   13.8336   10.2464   41.8011 C   0  0  0  0  0  0
   12.5834    9.3600   41.9009 C   0  0  0  0  0  0
   12.1540    8.8240   40.5299 C   0  0  0  0  0  0
   12.7989    8.2763   42.8528 N   0  0  0  0  0  0
   11.7502    7.5746   43.4637 C   0  0  0  0  0  0
   10.4186    8.0137   43.4567 C   0  0  0  0  0  0
    9.4258    7.2550   44.0929 C   0  0  0  0  0  0
    8.0139    7.7498   44.0015 C   0  0  0  0  0  0
    5.8149    8.2409   44.4387 C   0  0  0  0  0  0
    6.9611    7.6164   44.9280 C   0  0  0  0  0  0
    4.5046    8.3095   45.0248 C   0  0  0  0  0  0
    2.4323    9.7379   45.0908 C   0  0  2  0  0  0
    2.4278   10.3392   46.5037 C   0  0  0  0  0  0
    3.5576   11.4266   48.3627 C   0  0  0  0  0  0
    2.3834   11.3757   49.1093 C   0  0  0  0  0  0
    1.2302   10.8214   48.5589 C   0  0  0  0  0  0
    1.2532   10.2946   47.2662 C   0  0  0  0  0  0
    9.8153    6.0658   44.7350 C   0  0  0  0  0  0
   11.1574    5.6951   44.6921 C   0  0  0  0  0  0
    7.4633    8.4566   42.9350 C   0  0  0  0  0  0
    6.1471    8.7160   43.1935 N   0  0  0  0  0  0
    4.1389    7.4968   45.8725 O   0  0  0  0  0  0
    3.7570    9.3421   44.5904 N   0  0  0  0  0  0
    1.7152   10.6792   44.0938 C   0  0  0  0  0  0
    1.7084   10.1654   42.7748 O   0  0  0  0  0  0
    3.5766   10.9171   47.0645 C   0  0  0  0  0  0
   -0.2208   10.7896   49.4830 Cl  0  0  0  0  0  0
    8.7044    5.0085   45.5320 Cl  0  0  0  0  0  0
   12.1177    6.4238   44.0745 N   0  0  0  0  0  0
   14.1232   10.6304   42.7794 H   0  0  0  0  0  0
   14.6861    9.6990   41.3995 H   0  0  0  0  0  0
   13.6594   11.1070   41.1580 H   0  0  0  0  0  0
   11.7768    9.9944   42.2577 H   0  0  0  0  0  0
   11.2137    8.2774   40.5922 H   0  0  0  0  0  0
   12.0086    9.6318   39.8127 H   0  0  0  0  0  0
   12.9026    8.1413   40.1291 H   0  0  0  0  0  0
   13.6672    7.7696   42.7445 H   0  0  0  0  0  0
   10.1412    8.9293   42.9591 H   0  0  0  0  0  0
    7.0258    7.1210   45.8852 H   0  0  0  0  0  0
    1.8426    8.8213   45.1468 H   0  0  0  0  0  0
    4.4486   11.8644   48.7881 H   0  0  0  0  0  0
    2.3667   11.7638   50.1147 H   0  0  0  0  0  0
    0.3550    9.8569   46.8532 H   0  0  0  0  0  0
   11.4769    4.7874   45.1735 H   0  0  0  0  0  0
    7.8929    8.7784   41.9973 H   0  0  0  0  0  0
    5.5144    9.1843   42.5588 H   0  0  0  0  0  0
    4.1483    9.9520   43.8884 H   0  0  0  0  0  0
    2.1967   11.6582   44.0793 H   0  0  0  0  0  0
    0.6786   10.8368   44.3949 H   0  0  0  0  0  0
    1.1032    9.4125   42.7435 H   0  0  0  0  0  0
    4.4886   10.9767   46.4911 H   0  0  0  0  0  0
  1  2  1  0  0  0
  1 30  1  0  0  0
  1 31  1  0  0  0
  1 32  1  0  0  0
  2  3  1  0  0  0
  2  4  1  0  0  0
  2 33  1  0  0  0
  3 34  1  0  0  0
  3 35  1  0  0  0
  3 36  1  0  0  0
  4  5  1  0  0  0
  4 37  1  0  0  0
  5  6  1  0  0  0
  5 29  2  0  0  0
  6  7  2  0  0  0
  6 38  1  0  0  0
  7  8  1  0  0  0
  7 18  1  0  0  0
  8 10  1  0  0  0
  8 20  2  0  0  0
  9 10  2  0  0  0
  9 11  1  0  0  0
  9 21  1  0  0  0
 10 39  1  0  0  0
 11 22  2  0  0  0
 11 23  1  0  0  0
 12 13  1  0  0  0
 12 23  1  0  0  0
 12 24  1  0  0  0
 12 40  1  0  0  0
 13 17  1  0  0  0
 13 26  2  0  0  0
 14 15  2  0  0  0
 14 26  1  0  0  0
 14 41  1  0  0  0
 15 16  1  0  0  0
 15 42  1  0  0  0
 16 17  2  0  0  0
 16 27  1  0  0  0
 17 43  1  0  0  0
 18 19  2  0  0  0
 18 28  1  0  0  0
 19 29  1  0  0  0
 19 44  1  0  0  0
 20 21  1  0  0  0
 20 45  1  0  0  0
 21 46  1  0  0  0
 23 47  1  0  0  0
 24 25  1  0  0  0
 24 48  1  0  0  0
 24 49  1  0  0  0
 25 50  1  0  0  0
 26 51  1  0  0  0
M  END
> <s_m_entry_id>
134

> <s_m_entry_name>
6gdq.1_ligand

> <s_m_subgroup_title>
6GDQ - minimized_split_by_structure

> <s_m_subgroupid>
6GDQ - minimized_split_by_structure1

> <b_m_subgroup_collapsed>
0

$$$$
