5ZKB - minimized_ligand
                    3D
 Structure written by MMmdl.
 74 77  0  0  1  0            999 V2000
  -60.8998  -13.0577   12.6975 C   0  0  0  0  0  0
  -58.8526  -13.8376   11.8728 C   0  0  0  0  0  0
  -56.7774  -14.9436   12.2922 C   0  0  0  0  0  0
  -60.0593  -14.0919   12.4580 N   0  0  0  0  0  0
  -56.4955  -15.8908   13.2866 C   0  0  0  0  0  0
  -55.2745  -15.8920   13.9549 C   0  0  0  0  0  0
  -57.9979  -14.9194   11.5890 N   0  0  0  0  0  0
  -54.3064  -14.9469   13.6324 C   0  0  0  0  0  0
  -54.5690  -13.9875   12.6578 C   0  0  0  0  0  0
  -55.8050  -13.9604   11.9960 C   0  0  0  0  0  0
  -58.3354  -15.8341   10.6252 C   0  0  0  0  0  0
  -57.4423  -16.8199   10.3788 N   0  0  0  0  0  0
  -57.5604  -17.8099    9.3075 C   0  0  0  0  0  0
  -57.4288  -17.1909    7.9016 C   0  0  0  0  0  0
  -56.5166  -18.7883    6.2993 C   0  0  0  0  0  0
  -57.7377  -18.1910    6.8751 N   0  0  0  0  0  0
  -57.2063  -12.2571   10.9176 N   0  0  0  0  0  0
  -55.9928  -12.8475   10.9792 C   0  0  0  0  0  0
  -55.0471  -12.4556   10.2958 O   0  0  0  0  0  0
  -58.4436  -12.5270   11.5281 C   0  0  0  0  0  0
  -55.8258  -17.8688    5.2602 C   0  0  0  0  0  0
  -56.8182  -17.3900    4.1886 C   0  0  0  0  0  0
  -58.0260  -16.7363    4.8597 C   0  0  0  0  0  0
  -58.6974  -17.6995    5.8623 C   0  0  1  0  0  0
  -59.3501  -11.4892   11.7720 C   0  0  0  0  0  0
  -59.4425  -18.8264    5.1151 C   0  0  0  0  0  0
  -61.6638  -18.7246    6.3984 C   0  0  0  0  0  0
  -61.8099  -18.5656    7.9149 C   0  0  0  0  0  0
  -63.0366  -17.7274    8.2960 C   0  0  0  0  0  0
  -60.7114  -20.9972    5.6084 C   0  0  0  0  0  0
  -61.2695  -21.8186    6.7786 C   0  0  0  0  0  0
  -61.3834  -23.3072    6.4480 C   0  0  0  0  0  0
  -60.5809  -11.7441   12.3737 C   0  0  0  0  0  0
  -60.3957  -19.5607    6.0814 N   0  3  0  0  0  0
  -59.3825  -15.7564    9.9756 O   0  0  0  0  0  0
  -61.8439  -13.2983   13.1649 H   0  0  0  0  0  0
  -57.2303  -16.6392   13.5394 H   0  0  0  0  0  0
  -55.0782  -16.6317   14.7161 H   0  0  0  0  0  0
  -53.3557  -14.9475   14.1448 H   0  0  0  0  0  0
  -53.8046  -13.2559   12.4367 H   0  0  0  0  0  0
  -56.6067  -16.8718   10.9459 H   0  0  0  0  0  0
  -58.5163  -18.3293    9.4064 H   0  0  0  0  0  0
  -56.7944  -18.5728    9.4501 H   0  0  0  0  0  0
  -56.4377  -16.7603    7.7629 H   0  0  0  0  0  0
  -58.1144  -16.3480    7.8249 H   0  0  0  0  0  0
  -56.7914  -19.7279    5.8185 H   0  0  0  0  0  0
  -55.8197  -19.0616    7.0936 H   0  0  0  0  0  0
  -57.1880  -11.4043   10.3737 H   0  0  0  0  0  0
  -54.9868  -18.3864    4.7964 H   0  0  0  0  0  0
  -55.3955  -17.0020    5.7604 H   0  0  0  0  0  0
  -57.1358  -18.2289    3.5681 H   0  0  0  0  0  0
  -56.3728  -16.6772    3.5097 H   0  0  0  0  0  0
  -58.7431  -16.4051    4.1080 H   0  0  0  0  0  0
  -57.7067  -15.8293    5.3754 H   0  0  0  0  0  0
  -59.4610  -17.1155    6.3761 H   0  0  0  0  0  0
  -59.0970  -10.4748   11.5006 H   0  0  0  0  0  0
  -58.7510  -19.5652    4.7108 H   0  0  0  0  0  0
  -60.0687  -18.4622    4.3060 H   0  0  0  0  0  0
  -61.5598  -17.7499    5.9191 H   0  0  0  0  0  0
  -62.5178  -19.2260    5.9399 H   0  0  0  0  0  0
  -60.9124  -18.0968    8.3224 H   0  0  0  0  0  0
  -61.8880  -19.5467    8.3814 H   0  0  0  0  0  0
  -63.1324  -17.6418    9.3788 H   0  0  0  0  0  0
  -62.9661  -16.7171    7.8914 H   0  0  0  0  0  0
  -63.9562  -18.1769    7.9191 H   0  0  0  0  0  0
  -61.3932  -20.9171    4.7601 H   0  0  0  0  0  0
  -59.7687  -21.4180    5.2614 H   0  0  0  0  0  0
  -62.2550  -21.4394    7.0432 H   0  0  0  0  0  0
  -60.6358  -21.6950    7.6579 H   0  0  0  0  0  0
  -61.8139  -23.8731    7.2721 H   0  0  0  0  0  0
  -62.0124  -23.4698    5.5738 H   0  0  0  0  0  0
  -60.4001  -23.7309    6.2507 H   0  0  0  0  0  0
  -61.2733  -10.9424   12.5790 H   0  0  0  0  0  0
  -59.8684  -19.6543    6.9392 H   0  0  0  0  0  0
  1  4  1  0  0  0
  1 33  2  0  0  0
  1 36  1  0  0  0
  2  4  2  0  0  0
  2  7  1  0  0  0
  2 20  1  0  0  0
  3  5  1  0  0  0
  3  7  1  0  0  0
  3 10  2  0  0  0
  5  6  2  0  0  0
  5 37  1  0  0  0
  6  8  1  0  0  0
  6 38  1  0  0  0
  7 11  1  0  0  0
  8  9  2  0  0  0
  8 39  1  0  0  0
  9 10  1  0  0  0
  9 40  1  0  0  0
 10 18  1  0  0  0
 11 12  1  0  0  0
 11 35  2  0  0  0
 12 13  1  0  0  0
 12 41  1  0  0  0
 13 14  1  0  0  0
 13 42  1  0  0  0
 13 43  1  0  0  0
 14 16  1  0  0  0
 14 44  1  0  0  0
 14 45  1  0  0  0
 15 16  1  0  0  0
 15 21  1  0  0  0
 15 46  1  0  0  0
 15 47  1  0  0  0
 16 24  1  0  0  0
 17 18  1  0  0  0
 17 20  1  0  0  0
 17 48  1  0  0  0
 18 19  2  0  0  0
 20 25  2  0  0  0
 21 22  1  0  0  0
 21 49  1  0  0  0
 21 50  1  0  0  0
 22 23  1  0  0  0
 22 51  1  0  0  0
 22 52  1  0  0  0
 23 24  1  0  0  0
 23 53  1  0  0  0
 23 54  1  0  0  0
 24 26  1  0  0  0
 24 55  1  0  0  0
 25 33  1  0  0  0
 25 56  1  0  0  0
 26 34  1  0  0  0
 26 57  1  0  0  0
 26 58  1  0  0  0
 27 28  1  0  0  0
 27 34  1  0  0  0
 27 59  1  0  0  0
 27 60  1  0  0  0
 28 29  1  0  0  0
 28 61  1  0  0  0
 28 62  1  0  0  0
 29 63  1  0  0  0
 29 64  1  0  0  0
 29 65  1  0  0  0
 30 31  1  0  0  0
 30 34  1  0  0  0
 30 66  1  0  0  0
 30 67  1  0  0  0
 31 32  1  0  0  0
 31 68  1  0  0  0
 31 69  1  0  0  0
 32 70  1  0  0  0
 32 71  1  0  0  0
 32 72  1  0  0  0
 33 73  1  0  0  0
 34 74  1  0  0  0
M  CHG  1  34   1
M  END
> <s_m_entry_id>
87

> <s_m_entry_name>
5zkb.1_ligand

> <s_m_subgroup_title>
5ZKB - minimized_split_by_structure

> <s_m_subgroupid>
5ZKB - minimized_split_by_structure

> <b_m_subgroup_collapsed>
0

$$$$
