7PG6 - minimized_ligand
                    3D
 Structure written by MMmdl.
 52 54  0  0  1  0            999 V2000
   -2.9760  -11.2610   16.3726 C   0  0  0  0  0  0
   -1.5699   -9.9464   15.3077 C   0  0  0  0  0  0
    0.0505   -8.4292   14.2363 C   0  0  0  0  0  0
    1.7104   -4.7132   13.8010 O   0  0  0  0  0  0
   -4.2687  -10.9615   19.3538 C   0  0  0  0  0  0
   -4.6171  -10.8226   20.6992 C   0  0  0  0  0  0
   -2.7055   -9.5624   21.1613 C   0  0  0  0  0  0
   -2.2796   -9.7069   19.8358 C   0  0  0  0  0  0
   -1.9052   -8.7480   22.2127 C   0  0  0  0  0  0
   -0.7388   -7.9352   21.5759 C   0  0  0  0  0  0
   -2.8413   -7.7121   22.8969 C   0  0  0  0  0  0
   -1.3082   -9.7100   23.2833 C   0  0  0  0  0  0
   -0.5492   -9.0586   24.1671 F   0  0  0  0  0  0
   -2.2501  -10.3427   23.9842 F   0  0  0  0  0  0
   -0.5359  -10.6442   22.7294 F   0  0  0  0  0  0
   -3.8677  -10.1304   21.5892 N   0  0  0  0  0  0
   -3.0777  -10.3857   18.9009 C   0  0  0  0  0  0
   -2.6556  -10.4332   17.4614 C   0  0  0  0  0  0
   -3.9157  -12.4461   16.3494 C   0  0  0  0  0  0
   -1.5496   -9.2224   16.8845 S   0  0  0  0  0  0
   -2.3764  -10.9748   15.2205 N   0  0  0  0  0  0
   -0.8185   -9.4774   14.2254 N   0  0  0  0  0  0
    0.3321   -7.7902   15.2517 O   0  0  0  0  0  0
    0.6063   -8.0910   13.0413 N   0  0  0  0  0  0
    1.5019   -6.9174   12.8743 C   0  0  2  0  0  0
    0.9474   -5.5508   13.3270 C   0  0  0  0  0  0
   -0.3630   -5.3436   13.2073 N   0  0  0  0  0  0
    1.8415   -6.9175   11.3781 C   0  0  0  0  0  0
    1.7684   -8.3814   10.9838 C   0  0  0  0  0  0
    0.6151   -8.9171   11.8269 C   0  0  0  0  0  0
   -4.9324  -11.4869   18.6852 H   0  0  0  0  0  0
   -5.5303  -11.2488   21.0819 H   0  0  0  0  0  0
   -1.3465   -9.2706   19.5224 H   0  0  0  0  0  0
   -0.2335   -7.3073   22.3105 H   0  0  0  0  0  0
    0.0253   -8.5871   21.1517 H   0  0  0  0  0  0
   -1.0913   -7.2721   20.7841 H   0  0  0  0  0  0
   -2.3065   -7.0957   23.6206 H   0  0  0  0  0  0
   -3.2898   -7.0375   22.1659 H   0  0  0  0  0  0
   -3.6613   -8.1887   23.4367 H   0  0  0  0  0  0
   -3.6300  -13.1881   15.6090 H   0  0  0  0  0  0
   -3.9328  -12.9733   17.3028 H   0  0  0  0  0  0
   -4.9391  -12.1467   16.1248 H   0  0  0  0  0  0
   -0.9585   -9.9660   13.3531 H   0  0  0  0  0  0
    2.4094   -7.1297   13.4433 H   0  0  0  0  0  0
   -0.9466   -6.0363   12.7584 H   0  0  0  0  0  0
   -0.7651   -4.4633   13.5005 H   0  0  0  0  0  0
    2.8165   -6.4784   11.1660 H   0  0  0  0  0  0
    1.0949   -6.3537   10.8147 H   0  0  0  0  0  0
    2.6930   -8.8801   11.2799 H   0  0  0  0  0  0
    1.6305   -8.5360    9.9132 H   0  0  0  0  0  0
   -0.3343   -8.8022   11.3063 H   0  0  0  0  0  0
    0.7544   -9.9779   12.0398 H   0  0  0  0  0  0
  1 18  2  0  0  0
  1 19  1  0  0  0
  1 21  1  0  0  0
  2 20  1  0  0  0
  2 21  2  0  0  0
  2 22  1  0  0  0
  3 22  1  0  0  0
  3 23  2  0  0  0
  3 24  1  0  0  0
  4 26  2  0  0  0
  5  6  1  0  0  0
  5 17  2  0  0  0
  5 31  1  0  0  0
  6 16  2  0  0  0
  6 32  1  0  0  0
  7  8  2  0  0  0
  7  9  1  0  0  0
  7 16  1  0  0  0
  8 17  1  0  0  0
  8 33  1  0  0  0
  9 10  1  0  0  0
  9 11  1  0  0  0
  9 12  1  0  0  0
 10 34  1  0  0  0
 10 35  1  0  0  0
 10 36  1  0  0  0
 11 37  1  0  0  0
 11 38  1  0  0  0
 11 39  1  0  0  0
 12 13  1  0  0  0
 12 14  1  0  0  0
 12 15  1  0  0  0
 17 18  1  0  0  0
 18 20  1  0  0  0
 19 40  1  0  0  0
 19 41  1  0  0  0
 19 42  1  0  0  0
 22 43  1  0  0  0
 24 25  1  0  0  0
 24 30  1  0  0  0
 25 26  1  0  0  0
 25 28  1  0  0  0
 25 44  1  0  0  0
 26 27  1  0  0  0
 27 45  1  0  0  0
 27 46  1  0  0  0
 28 29  1  0  0  0
 28 47  1  0  0  0
 28 48  1  0  0  0
 29 30  1  0  0  0
 29 49  1  0  0  0
 29 50  1  0  0  0
 30 51  1  0  0  0
 30 52  1  0  0  0
M  END
> <s_m_entry_id>
107

> <s_m_entry_name>
7pg6.1_ligand

> <s_m_subgroup_title>
7PG6 - minimized_split_by_structure

> <s_m_subgroupid>
7PG6 - minimized_split_by_structure

> <b_m_subgroup_collapsed>
0

$$$$
