8JJL - minimized_ligand
                    3D
 Structure written by MMmdl.
 55 57  0  0  1  0            999 V2000
  123.8121  116.8646   90.9932 C   0  0  0  0  0  0
  123.2171  119.5620   93.9007 C   0  0  2  0  0  0
  122.5085  120.8752   93.5701 C   0  0  0  0  0  0
  121.2435  122.8345   94.2458 C   0  0  0  0  0  0
  121.7008  122.4615   91.9069 C   0  0  0  0  0  0
  122.4034  121.2988   92.2366 C   0  0  0  0  0  0
  122.1772  122.2093   89.5227 C   0  0  0  0  0  0
  123.9954  112.2263   89.9480 C   0  0  0  0  0  0
  126.8995  111.1445   88.1237 C   0  0  0  0  0  0
  125.5428  111.5185   88.3223 O   0  0  0  0  0  0
  125.2480  112.3713   89.3607 C   0  0  0  0  0  0
  126.1212  113.3596   89.8321 C   0  0  0  0  0  0
  125.7473  114.1615   90.9077 C   0  0  0  0  0  0
  124.4906  114.0006   91.4938 C   0  0  0  0  0  0
  124.0628  114.8970   92.6460 C   0  0  0  0  0  0
  123.2152  116.1309   92.2199 C   0  0  0  0  0  0
  121.7332  115.7378   92.0053 C   0  0  0  0  0  0
  123.2958  117.1065   93.4071 N   0  3  0  0  0  0
  122.4061  118.3623   93.3890 C   0  0  0  0  0  0
  123.5500  119.3826   95.2689 O   0  0  0  0  0  0
  121.9257  121.6617   94.5687 C   0  0  0  0  0  0
  120.6875  123.5726   95.2522 O   0  0  0  0  0  0
  121.1236  123.2362   92.9138 C   0  0  0  0  0  0
  122.9400  120.5124   91.2343 O   0  0  0  0  0  0
  123.2349  121.1664   89.9808 C   0  0  0  0  0  0
  121.9576  122.4972   88.3483 O   0  0  0  0  0  0
  121.5637  122.7997   90.5651 N   0  0  0  0  0  0
  123.6117  113.0397   91.0040 C   0  0  0  0  0  0
  123.2503  117.7534   90.7125 H   0  0  0  0  0  0
  124.8396  117.1789   91.1735 H   0  0  0  0  0  0
  123.8268  116.2198   90.1164 H   0  0  0  0  0  0
  124.1681  119.5948   93.3695 H   0  0  0  0  0  0
  123.3194  111.4738   89.5861 H   0  0  0  0  0  0
  126.9430  110.3470   87.3819 H   0  0  0  0  0  0
  127.4969  111.9746   87.7453 H   0  0  0  0  0  0
  127.3503  110.7620   89.0405 H   0  0  0  0  0  0
  127.0907  113.5063   89.3814 H   0  0  0  0  0  0
  126.4289  114.9133   91.2790 H   0  0  0  0  0  0
  124.9598  115.1948   93.1895 H   0  0  0  0  0  0
  123.5118  114.2935   93.3709 H   0  0  0  0  0  0
  121.2998  115.2896   92.9010 H   0  0  0  0  0  0
  121.1062  116.5848   91.7281 H   0  0  0  0  0  0
  121.6341  115.0160   91.1966 H   0  0  0  0  0  0
  124.2612  117.3963   93.4906 H   0  0  0  0  0  0
  123.0631  116.5978   94.2562 H   0  0  0  0  0  0
  122.0728  118.5029   92.3645 H   0  0  0  0  0  0
  121.5313  118.1279   93.9955 H   0  0  0  0  0  0
  122.7981  119.0029   95.7374 H   0  0  0  0  0  0
  121.9864  121.3592   95.6018 H   0  0  0  0  0  0
  120.3438  124.4310   94.9799 H   0  0  0  0  0  0
  120.5788  124.1368   92.6663 H   0  0  0  0  0  0
  124.1961  121.6739   90.0644 H   0  0  0  0  0  0
  123.3440  120.4093   89.2045 H   0  0  0  0  0  0
  120.8969  123.5192   90.3186 H   0  0  0  0  0  0
  122.6298  112.9267   91.4346 H   0  0  0  0  0  0
  1 16  1  0  0  0
  1 29  1  0  0  0
  1 30  1  0  0  0
  1 31  1  0  0  0
  2  3  1  0  0  0
  2 19  1  0  0  0
  2 20  1  0  0  0
  2 32  1  0  0  0
  3  6  1  0  0  0
  3 21  2  0  0  0
  4 21  1  0  0  0
  4 22  1  0  0  0
  4 23  2  0  0  0
  5  6  2  0  0  0
  5 23  1  0  0  0
  5 27  1  0  0  0
  6 24  1  0  0  0
  7 25  1  0  0  0
  7 26  2  0  0  0
  7 27  1  0  0  0
  8 11  1  0  0  0
  8 28  2  0  0  0
  8 33  1  0  0  0
  9 10  1  0  0  0
  9 34  1  0  0  0
  9 35  1  0  0  0
  9 36  1  0  0  0
 10 11  1  0  0  0
 11 12  2  0  0  0
 12 13  1  0  0  0
 12 37  1  0  0  0
 13 14  2  0  0  0
 13 38  1  0  0  0
 14 15  1  0  0  0
 14 28  1  0  0  0
 15 16  1  0  0  0
 15 39  1  0  0  0
 15 40  1  0  0  0
 16 17  1  0  0  0
 16 18  1  0  0  0
 17 41  1  0  0  0
 17 42  1  0  0  0
 17 43  1  0  0  0
 18 19  1  0  0  0
 18 44  1  0  0  0
 18 45  1  0  0  0
 19 46  1  0  0  0
 19 47  1  0  0  0
 20 48  1  0  0  0
 21 49  1  0  0  0
 22 50  1  0  0  0
 23 51  1  0  0  0
 24 25  1  0  0  0
 25 52  1  0  0  0
 25 53  1  0  0  0
 27 54  1  0  0  0
 28 55  1  0  0  0
M  CHG  1  18   1
M  END
> <s_m_entry_id>
82

> <s_m_entry_name>
8jjl.1_ligand

> <s_m_subgroup_title>
8JJL - minimized_split_by_structure

> <s_m_subgroupid>
8JJL - minimized_split_by_structure

> <b_m_subgroup_collapsed>
0

$$$$
