3TWJ - minimized_ligand
                    3D
 Structure written by MMmdl.
 37 39  0  0  1  0            999 V2000
   18.0666   34.6263   17.1448 O   0  0  0  0  0  0
   16.8563   34.5637   16.9544 C   0  0  0  0  0  0
   16.2957   35.1818   15.9058 N   0  0  0  0  0  0
   15.5604   34.5265   14.8269 C   0  0  0  0  0  0
   16.4775   33.9539   13.7514 C   0  0  0  0  0  0
   17.4325   34.7627   13.1166 C   0  0  0  0  0  0
   18.3153   34.2122   12.1822 C   0  0  0  0  0  0
   19.2648   34.9981   11.5870 O   0  0  0  0  0  0
   18.2442   32.8550   11.8725 C   0  0  0  0  0  0
   17.2807   32.0564   12.4853 C   0  0  0  0  0  0
   16.3851   32.6060   13.4000 C   0  0  0  0  0  0
   15.9668   34.0297   17.8121 N   0  0  0  0  0  0
   16.2393   33.5973   19.1011 C   0  0  0  0  0  0
   15.4021   32.8225   19.7338 N   0  0  0  0  0  0
   15.8346   32.4512   20.9294 C   0  0  0  0  0  0
   15.0619   31.4522   21.7324 C   0  0  0  0  0  0
   13.8924   30.8579   21.2289 C   0  0  0  0  0  0
   13.2012   29.9350   22.0130 C   0  0  0  0  0  0
   13.6071   29.5784   23.2544 N   0  0  0  0  0  0
   14.7312   30.1632   23.7354 C   0  0  0  0  0  0
   15.4869   31.0847   23.0163 C   0  0  0  0  0  0
   17.0299   33.0605   21.3097 C   0  0  0  0  0  0
   17.6444   34.0441   20.0268 S   0  0  0  0  0  0
   16.8015   35.9975   15.5894 H   0  0  0  0  0  0
   14.9166   35.2726   14.3598 H   0  0  0  0  0  0
   14.8977   33.7545   15.2250 H   0  0  0  0  0  0
   17.5067   35.8110   13.3677 H   0  0  0  0  0  0
   19.8113   34.5184   10.9617 H   0  0  0  0  0  0
   18.9331   32.4160   11.1649 H   0  0  0  0  0  0
   17.2297   31.0086   12.2530 H   0  0  0  0  0  0
   15.6273   31.9776   13.8454 H   0  0  0  0  0  0
   15.0231   33.8881   17.4839 H   0  0  0  0  0  0
   13.5164   31.1023   20.2465 H   0  0  0  0  0  0
   12.2986   29.4677   21.6468 H   0  0  0  0  0  0
   15.0086   29.9003   24.7376 H   0  0  0  0  0  0
   16.3715   31.5052   23.4672 H   0  0  0  0  0  0
   17.5841   32.9533   22.2273 H   0  0  0  0  0  0
  1  2  2  0  0  0
  2  3  1  0  0  0
  2 12  1  0  0  0
  3  4  1  0  0  0
  3 24  1  0  0  0
  4  5  1  0  0  0
  4 25  1  0  0  0
  4 26  1  0  0  0
  5  6  2  0  0  0
  5 11  1  0  0  0
  6  7  1  0  0  0
  6 27  1  0  0  0
  7  8  1  0  0  0
  7  9  2  0  0  0
  8 28  1  0  0  0
  9 10  1  0  0  0
  9 29  1  0  0  0
 10 11  2  0  0  0
 10 30  1  0  0  0
 11 31  1  0  0  0
 12 13  1  0  0  0
 12 32  1  0  0  0
 13 14  2  0  0  0
 13 23  1  0  0  0
 14 15  1  0  0  0
 15 16  1  0  0  0
 15 22  2  0  0  0
 16 17  2  0  0  0
 16 21  1  0  0  0
 17 18  1  0  0  0
 17 33  1  0  0  0
 18 19  2  0  0  0
 18 34  1  0  0  0
 19 20  1  0  0  0
 20 21  2  0  0  0
 20 35  1  0  0  0
 21 36  1  0  0  0
 22 23  1  0  0  0
 22 37  1  0  0  0
M  END
> <s_m_entry_id>
97

> <s_m_entry_name>
3twj.1_ligand

> <s_m_subgroup_title>
3TWJ - minimized_split_by_structure

> <s_m_subgroupid>
3TWJ - minimized_split_by_structure

> <b_m_subgroup_collapsed>
0

$$$$
