MODEL 1
REMARK VINA RESULT:     -11.6      0.000      0.000
REMARK SMILES N=c1nc2ncn3cc4c(n5c6[nH]c(=N)ncc6c(n1)c2c35)=Cc1ncncc1C4
REMARK SMILES IDX 8 1 9 2 30 3 10 4 29 5 7 6 6 7 22 8 24 9 11 10 12 11 18 12
REMARK SMILES IDX 19 13 13 14 25 15 14 16 21 17 5 18 20 19 26 20 16 21 4 22
REMARK SMILES IDX 3 23 2 24 23 25 15 26 28 27 17 28 27 29 1 30
REMARK H PARENT 13 31 15 32 1 33
REMARK Flexibility Score: inf
ROOT
ATOM      1  C   UNL     1     -28.158 -17.061 147.937  1.00  0.00     0.100 A 
ATOM      2  C   UNL     1     -27.570 -16.547 146.993  1.00  0.00    -0.002 A 
ATOM      3  C   UNL     1     -26.617 -17.171 146.190  1.00  0.00     0.078 C 
ATOM      4  C   UNL     1     -27.734 -15.121 146.551  1.00  0.00     0.056 A 
ATOM      5  C   UNL     1     -25.479 -16.628 145.644  1.00  0.00     0.001 A 
ATOM      6  N   UNL     1     -29.137 -16.279 148.717  1.00  0.00    -0.292 N 
ATOM      7  C   UNL     1     -29.948 -16.731 149.622  1.00  0.00     0.208 A 
ATOM      8  C   UNL     1     -29.155 -14.993 148.296  1.00  0.00     0.137 A 
ATOM      9  C   UNL     1     -25.543 -15.166 145.645  1.00  0.00     0.072 A 
ATOM     10  N   UNL     1     -28.598 -14.369 147.231  1.00  0.00    -0.280 N 
ATOM     11  C   UNL     1     -29.048 -13.130 146.847  1.00  0.00     0.130 A 
ATOM     12  C   UNL     1     -29.984 -12.453 147.415  1.00  0.00     0.061 A 
ATOM     13  C   UNL     1     -30.584 -13.001 148.582  1.00  0.00     0.094 A 
ATOM     14  N   UNL     1     -28.303 -12.524 145.746  1.00  0.00    -0.310 N 
ATOM     15  N   UNL     1     -24.475 -14.457 144.965  1.00  0.00    -0.237 NA
ATOM     16  C   UNL     1     -28.727 -11.398 145.193  1.00  0.00     0.220 A 
ATOM     17  C   UNL     1     -30.271 -14.287 148.966  1.00  0.00     0.088 A 
ATOM     18  N   UNL     1     -30.884 -15.967 150.217  1.00  0.00    -0.218 NA
ATOM     19  N   UNL     1     -31.597 -12.533 149.520  1.00  0.00    -0.210 NA
ATOM     20  C   UNL     1     -23.532 -15.142 144.500  1.00  0.00     0.222 A 
ATOM     21  N   UNL     1     -29.773 -10.725 145.806  1.00  0.00    -0.221 NA
ATOM     22  C   UNL     1     -31.037 -14.715 149.919  1.00  0.00     0.170 A 
ATOM     23  N   UNL     1     -31.874 -13.878 150.679  1.00  0.00    -0.191 NA
ATOM     24  C   UNL     1     -32.076 -12.645 150.420  1.00  0.00     0.244 A 
ATOM     25  C   UNL     1     -26.742 -14.463 145.570  1.00  0.00     0.055 C 
ATOM     26  N   UNL     1     -28.396 -10.938 143.932  1.00  0.00    -0.267 NA
ATOM     27  C   UNL     1     -24.367 -17.254 145.047  1.00  0.00     0.119 A 
ATOM     28  C   UNL     1     -30.398 -11.191 146.920  1.00  0.00     0.129 A 
ATOM     29  N   UNL     1     -23.471 -16.553 144.440  1.00  0.00    -0.244 NA
ATOM     30  N   UNL     1     -32.939 -11.894 151.115  1.00  0.00    -0.265 NA
ATOM     31  H   UNL     1     -61.535 123.157 110.615  1.00  0.00     0.171 HD
ATOM     32  H   UNL     1     -61.535 123.157 110.615  1.00  0.00     0.191 HD
ATOM     33  H   UNL     1     -61.535 123.157 110.615  1.00  0.00     0.191 HD
ENDROOT
TORSDOF 0
ENDMDL
MODEL 2
REMARK VINA RESULT:     -11.1      2.156      5.129
REMARK SMILES N=c1nc2ncn3cc4c(n5c6[nH]c(=N)ncc6c(n1)c2c35)=Cc1ncncc1C4
REMARK SMILES IDX 8 1 9 2 30 3 10 4 29 5 7 6 6 7 22 8 24 9 11 10 12 11 18 12
REMARK SMILES IDX 19 13 13 14 25 15 14 16 21 17 5 18 20 19 26 20 16 21 4 22
REMARK SMILES IDX 3 23 2 24 23 25 15 26 28 27 17 28 27 29 1 30
REMARK H PARENT 13 31 15 32 1 33
REMARK Flexibility Score: inf
ROOT
ATOM      1  C   UNL     1     -30.266 -12.585 147.987  1.00  0.00     0.100 A 
ATOM      2  C   UNL     1     -29.445 -13.492 147.933  1.00  0.00    -0.002 A 
ATOM      3  C   UNL     1     -28.326 -13.530 147.104  1.00  0.00     0.078 C 
ATOM      4  C   UNL     1     -29.519 -14.767 148.725  1.00  0.00     0.056 A 
ATOM      5  C   UNL     1     -27.784 -14.614 146.456  1.00  0.00     0.001 A 
ATOM      6  N   UNL     1     -31.419 -12.680 148.904  1.00  0.00    -0.292 N 
ATOM      7  C   UNL     1     -32.265 -11.739 149.189  1.00  0.00     0.208 A 
ATOM      8  C   UNL     1     -31.441 -13.890 149.509  1.00  0.00     0.137 A 
ATOM      9  C   UNL     1     -28.264 -15.867 147.040  1.00  0.00     0.072 A 
ATOM     10  N   UNL     1     -30.548 -14.907 149.558  1.00  0.00    -0.280 N 
ATOM     11  C   UNL     1     -30.668 -15.881 150.517  1.00  0.00     0.130 A 
ATOM     12  C   UNL     1     -31.583 -15.949 151.421  1.00  0.00     0.061 A 
ATOM     13  C   UNL     1     -32.602 -14.958 151.407  1.00  0.00     0.094 A 
ATOM     14  N   UNL     1     -29.702 -16.972 150.404  1.00  0.00    -0.310 N 
ATOM     15  N   UNL     1     -27.663 -17.095 146.553  1.00  0.00    -0.237 NA
ATOM     16  C   UNL     1     -29.624 -17.895 151.350  1.00  0.00     0.220 A 
ATOM     17  C   UNL     1     -32.492 -13.883 150.553  1.00  0.00     0.088 A 
ATOM     18  N   UNL     1     -33.232 -11.876 150.116  1.00  0.00    -0.218 NA
ATOM     19  N   UNL     1     -33.808 -14.729 152.193  1.00  0.00    -0.210 NA
ATOM     20  C   UNL     1     -26.840 -17.002 145.611  1.00  0.00     0.222 A 
ATOM     21  N   UNL     1     -30.598 -17.902 152.336  1.00  0.00    -0.221 NA
ATOM     22  C   UNL     1     -33.382 -12.972 150.792  1.00  0.00     0.170 A 
ATOM     23  N   UNL     1     -34.508 -13.181 151.609  1.00  0.00    -0.191 NA
ATOM     24  C   UNL     1     -34.696 -14.229 152.309  1.00  0.00     0.244 A 
ATOM     25  C   UNL     1     -28.635 -15.983 148.376  1.00  0.00     0.055 C 
ATOM     26  N   UNL     1     -28.538 -18.714 151.598  1.00  0.00    -0.267 NA
ATOM     27  C   UNL     1     -26.827 -14.673 145.423  1.00  0.00     0.119 A 
ATOM     28  C   UNL     1     -31.600 -16.983 152.390  1.00  0.00     0.129 A 
ATOM     29  N   UNL     1     -26.323 -15.804 145.065  1.00  0.00    -0.244 NA
ATOM     30  N   UNL     1     -35.739 -14.366 153.137  1.00  0.00    -0.265 NA
ATOM     31  H   UNL     1     -46.350-129.146 239.217  1.00  0.00     0.171 HD
ATOM     32  H   UNL     1     -46.350-129.146 239.217  1.00  0.00     0.191 HD
ATOM     33  H   UNL     1     -46.350-129.146 239.217  1.00  0.00     0.191 HD
ENDROOT
TORSDOF 0
ENDMDL
MODEL 3
REMARK VINA RESULT:     -11.1      1.768      5.395
REMARK SMILES N=c1nc2ncn3cc4c(n5c6[nH]c(=N)ncc6c(n1)c2c35)=Cc1ncncc1C4
REMARK SMILES IDX 8 1 9 2 30 3 10 4 29 5 7 6 6 7 22 8 24 9 11 10 12 11 18 12
REMARK SMILES IDX 19 13 13 14 25 15 14 16 21 17 5 18 20 19 26 20 16 21 4 22
REMARK SMILES IDX 3 23 2 24 23 25 15 26 28 27 17 28 27 29 1 30
REMARK H PARENT 13 31 15 32 1 33
REMARK Flexibility Score: inf
ROOT
ATOM      1  C   UNL     1     -30.167 -11.224 146.639  1.00  0.00     0.100 A 
ATOM      2  C   UNL     1     -29.368 -11.112 145.718  1.00  0.00    -0.002 A 
ATOM      3  C   UNL     1     -29.261 -10.017 144.861  1.00  0.00     0.078 C 
ATOM      4  C   UNL     1     -28.379 -12.163 145.305  1.00  0.00     0.056 A 
ATOM      5  C   UNL     1     -28.982 -10.016 143.516  1.00  0.00     0.001 A 
ATOM      6  N   UNL     1     -30.184 -12.449 147.463  1.00  0.00    -0.292 N 
ATOM      7  C   UNL     1     -30.848 -12.637 148.561  1.00  0.00     0.208 A 
ATOM      8  C   UNL     1     -29.318 -13.362 146.966  1.00  0.00     0.137 A 
ATOM      9  C   UNL     1     -28.391 -11.289 143.101  1.00  0.00     0.072 A 
ATOM     10  N   UNL     1     -28.362 -13.294 146.009  1.00  0.00    -0.280 N 
ATOM     11  C   UNL     1     -27.396 -14.265 145.933  1.00  0.00     0.130 A 
ATOM     12  C   UNL     1     -27.288 -15.291 146.703  1.00  0.00     0.061 A 
ATOM     13  C   UNL     1     -28.285 -15.481 147.698  1.00  0.00     0.094 A 
ATOM     14  N   UNL     1     -26.482 -14.130 144.801  1.00  0.00    -0.310 N 
ATOM     15  N   UNL     1     -27.910 -11.379 141.735  1.00  0.00    -0.237 NA
ATOM     16  C   UNL     1     -25.424 -14.919 144.699  1.00  0.00     0.220 A 
ATOM     17  C   UNL     1     -29.223 -14.495 147.916  1.00  0.00     0.088 A 
ATOM     18  N   UNL     1     -30.729 -13.751 149.309  1.00  0.00    -0.218 NA
ATOM     19  N   UNL     1     -28.548 -16.516 148.690  1.00  0.00    -0.210 NA
ATOM     20  C   UNL     1     -28.110 -10.393 140.985  1.00  0.00     0.222 A 
ATOM     21  N   UNL     1     -25.317 -15.983 145.581  1.00  0.00    -0.221 NA
ATOM     22  C   UNL     1     -29.934 -14.718 148.975  1.00  0.00     0.170 A 
ATOM     23  N   UNL     1     -29.962 -15.954 149.646  1.00  0.00    -0.191 NA
ATOM     24  C   UNL     1     -29.191 -16.932 149.373  1.00  0.00     0.244 A 
ATOM     25  C   UNL     1     -27.634 -12.083 143.956  1.00  0.00     0.055 C 
ATOM     26  N   UNL     1     -24.286 -14.660 143.957  1.00  0.00    -0.267 NA
ATOM     27  C   UNL     1     -29.107  -8.986 142.561  1.00  0.00     0.119 A 
ATOM     28  C   UNL     1     -26.230 -16.224 146.561  1.00  0.00     0.129 A 
ATOM     29  N   UNL     1     -28.630  -9.137 141.373  1.00  0.00    -0.244 NA
ATOM     30  N   UNL     1     -29.188 -18.069 150.080  1.00  0.00    -0.265 NA
ATOM     31  H   UNL     1      67.939-120.758 123.280  1.00  0.00     0.171 HD
ATOM     32  H   UNL     1      67.939-120.758 123.280  1.00  0.00     0.191 HD
ATOM     33  H   UNL     1      67.939-120.758 123.280  1.00  0.00     0.191 HD
ENDROOT
TORSDOF 0
ENDMDL
MODEL 4
REMARK VINA RESULT:      -9.5      2.054      5.927
REMARK SMILES N=c1nc2ncn3cc4c(n5c6[nH]c(=N)ncc6c(n1)c2c35)=Cc1ncncc1C4
REMARK SMILES IDX 8 1 9 2 30 3 10 4 29 5 7 6 6 7 22 8 24 9 11 10 12 11 18 12
REMARK SMILES IDX 19 13 13 14 25 15 14 16 21 17 5 18 20 19 26 20 16 21 4 22
REMARK SMILES IDX 3 23 2 24 23 25 15 26 28 27 17 28 27 29 1 30
REMARK H PARENT 13 31 15 32 1 33
REMARK Flexibility Score: inf
ROOT
ATOM      1  C   UNL     1     -29.952 -14.927 148.498  1.00  0.00     0.100 A 
ATOM      2  C   UNL     1     -29.182 -15.854 148.716  1.00  0.00    -0.002 A 
ATOM      3  C   UNL     1     -29.435 -16.945 149.545  1.00  0.00     0.078 C 
ATOM      4  C   UNL     1     -27.790 -15.964 148.163  1.00  0.00     0.056 A 
ATOM      5  C   UNL     1     -28.561 -17.601 150.377  1.00  0.00     0.001 A 
ATOM      6  N   UNL     1     -29.550 -13.821 147.606  1.00  0.00    -0.292 N 
ATOM      7  C   UNL     1     -30.309 -12.872 147.155  1.00  0.00     0.208 A 
ATOM      8  C   UNL     1     -28.260 -13.969 147.225  1.00  0.00     0.137 A 
ATOM      9  C   UNL     1     -27.173 -17.300 150.022  1.00  0.00     0.072 A 
ATOM     10  N   UNL     1     -27.374 -14.984 147.362  1.00  0.00    -0.280 N 
ATOM     11  C   UNL     1     -26.240 -15.015 146.590  1.00  0.00     0.130 A 
ATOM     12  C   UNL     1     -25.898 -14.142 145.708  1.00  0.00     0.061 A 
ATOM     13  C   UNL     1     -26.735 -13.006 145.540  1.00  0.00     0.094 A 
ATOM     14  N   UNL     1     -25.320 -16.107 146.900  1.00  0.00    -0.310 N 
ATOM     15  N   UNL     1     -26.137 -18.037 150.722  1.00  0.00    -0.237 NA
ATOM     16  C   UNL     1     -24.263 -16.328 146.133  1.00  0.00     0.220 A 
ATOM     17  C   UNL     1     -27.948 -12.955 146.191  1.00  0.00     0.088 A 
ATOM     18  N   UNL     1     -29.887 -11.956 146.261  1.00  0.00    -0.218 NA
ATOM     19  N   UNL     1     -26.665 -11.803 144.720  1.00  0.00    -0.210 NA
ATOM     20  C   UNL     1     -26.500 -18.815 151.638  1.00  0.00     0.222 A 
ATOM     21  N   UNL     1     -23.958 -15.391 145.158  1.00  0.00    -0.221 NA
ATOM     22  C   UNL     1     -28.680 -11.964 145.790  1.00  0.00     0.170 A 
ATOM     23  N   UNL     1     -28.188 -10.897 145.017  1.00  0.00    -0.191 NA
ATOM     24  C   UNL     1     -27.017 -10.862 144.512  1.00  0.00     0.244 A 
ATOM     25  C   UNL     1     -26.778 -16.984 148.725  1.00  0.00     0.055 C 
ATOM     26  N   UNL     1     -23.562 -17.516 146.040  1.00  0.00    -0.267 NA
ATOM     27  C   UNL     1     -28.807 -18.528 151.409  1.00  0.00     0.119 A 
ATOM     28  C   UNL     1     -24.716 -14.282 144.938  1.00  0.00     0.129 A 
ATOM     29  N   UNL     1     -27.831 -19.161 151.965  1.00  0.00    -0.244 NA
ATOM     30  N   UNL     1     -26.604  -9.869 143.716  1.00  0.00    -0.265 NA
ATOM     31  H   UNL     1     101.867 -16.263  79.287  1.00  0.00     0.171 HD
ATOM     32  H   UNL     1     101.867 -16.263  79.287  1.00  0.00     0.191 HD
ATOM     33  H   UNL     1     101.867 -16.263  79.287  1.00  0.00     0.191 HD
ENDROOT
TORSDOF 0
ENDMDL
MODEL 5
REMARK VINA RESULT:      -9.4      2.298      7.386
REMARK SMILES N=c1nc2ncn3cc4c(n5c6[nH]c(=N)ncc6c(n1)c2c35)=Cc1ncncc1C4
REMARK SMILES IDX 8 1 9 2 30 3 10 4 29 5 7 6 6 7 22 8 24 9 11 10 12 11 18 12
REMARK SMILES IDX 19 13 13 14 25 15 14 16 21 17 5 18 20 19 26 20 16 21 4 22
REMARK SMILES IDX 3 23 2 24 23 25 15 26 28 27 17 28 27 29 1 30
REMARK H PARENT 13 31 15 32 1 33
REMARK Flexibility Score: inf
ROOT
ATOM      1  C   UNL     1     -28.506 -13.088 147.271  1.00  0.00     0.100 A 
ATOM      2  C   UNL     1     -28.655 -14.261 147.593  1.00  0.00    -0.002 A 
ATOM      3  C   UNL     1     -29.781 -14.797 148.214  1.00  0.00     0.078 C 
ATOM      4  C   UNL     1     -27.624 -15.338 147.420  1.00  0.00     0.056 A 
ATOM      5  C   UNL     1     -29.835 -15.773 149.180  1.00  0.00     0.001 A 
ATOM      6  N   UNL     1     -27.251 -12.648 146.630  1.00  0.00    -0.292 N 
ATOM      7  C   UNL     1     -27.019 -11.493 146.089  1.00  0.00     0.208 A 
ATOM      8  C   UNL     1     -26.360 -13.666 146.591  1.00  0.00     0.137 A 
ATOM      9  C   UNL     1     -28.581 -16.525 149.236  1.00  0.00     0.072 A 
ATOM     10  N   UNL     1     -26.468 -14.990 146.857  1.00  0.00    -0.280 N 
ATOM     11  C   UNL     1     -25.504 -15.860 146.414  1.00  0.00     0.130 A 
ATOM     12  C   UNL     1     -24.450 -15.549 145.744  1.00  0.00     0.061 A 
ATOM     13  C   UNL     1     -24.219 -14.173 145.473  1.00  0.00     0.094 A 
ATOM     14  N   UNL     1     -25.685 -17.244 146.847  1.00  0.00    -0.310 N 
ATOM     15  N   UNL     1     -28.544 -17.684 150.109  1.00  0.00    -0.237 NA
ATOM     16  C   UNL     1     -24.904 -18.201 146.370  1.00  0.00     0.220 A 
ATOM     17  C   UNL     1     -25.193 -13.248 145.781  1.00  0.00     0.088 A 
ATOM     18  N   UNL     1     -25.878 -11.205 145.433  1.00  0.00    -0.218 NA
ATOM     19  N   UNL     1     -23.147 -13.430 144.822  1.00  0.00    -0.210 NA
ATOM     20  C   UNL     1     -29.556 -17.908 150.816  1.00  0.00     0.222 A 
ATOM     21  N   UNL     1     -23.808 -17.828 145.607  1.00  0.00    -0.221 NA
ATOM     22  C   UNL     1     -24.927 -12.075 145.299  1.00  0.00     0.170 A 
ATOM     23  N   UNL     1     -23.666 -11.711 144.792  1.00  0.00    -0.191 NA
ATOM     24  C   UNL     1     -22.702 -12.528 144.622  1.00  0.00     0.244 A 
ATOM     25  C   UNL     1     -27.758 -16.702 148.127  1.00  0.00     0.055 C 
ATOM     26  N   UNL     1     -25.196 -19.552 146.350  1.00  0.00    -0.267 NA
ATOM     27  C   UNL     1     -30.899 -16.172 150.014  1.00  0.00     0.119 A 
ATOM     28  C   UNL     1     -23.528 -16.532 145.304  1.00  0.00     0.129 A 
ATOM     29  N   UNL     1     -30.795 -17.229 150.744  1.00  0.00    -0.244 NA
ATOM     30  N   UNL     1     -21.540 -12.167 144.064  1.00  0.00    -0.265 NA
ATOM     31  H   UNL     1      79.682-110.359 115.619  1.00  0.00     0.171 HD
ATOM     32  H   UNL     1      79.682-110.359 115.619  1.00  0.00     0.191 HD
ATOM     33  H   UNL     1      79.682-110.359 115.619  1.00  0.00     0.191 HD
ENDROOT
TORSDOF 0
ENDMDL
MODEL 6
REMARK VINA RESULT:      -9.4      1.987      4.987
REMARK SMILES N=c1nc2ncn3cc4c(n5c6[nH]c(=N)ncc6c(n1)c2c35)=Cc1ncncc1C4
REMARK SMILES IDX 8 1 9 2 30 3 10 4 29 5 7 6 6 7 22 8 24 9 11 10 12 11 18 12
REMARK SMILES IDX 19 13 13 14 25 15 14 16 21 17 5 18 20 19 26 20 16 21 4 22
REMARK SMILES IDX 3 23 2 24 23 25 15 26 28 27 17 28 27 29 1 30
REMARK H PARENT 13 31 15 32 1 33
REMARK Flexibility Score: inf
ROOT
ATOM      1  C   UNL     1     -24.265 -13.650 145.526  1.00  0.00     0.100 A 
ATOM      2  C   UNL     1     -24.515 -14.708 146.090  1.00  0.00    -0.002 A 
ATOM      3  C   UNL     1     -23.601 -15.728 146.348  1.00  0.00     0.078 C 
ATOM      4  C   UNL     1     -25.875 -15.126 146.570  1.00  0.00     0.056 A 
ATOM      5  C   UNL     1     -23.809 -17.085 146.304  1.00  0.00     0.001 A 
ATOM      6  N   UNL     1     -25.335 -12.657 145.301  1.00  0.00    -0.292 N 
ATOM      7  C   UNL     1     -25.188 -11.440 144.876  1.00  0.00     0.208 A 
ATOM      8  C   UNL     1     -26.530 -13.156 145.694  1.00  0.00     0.137 A 
ATOM      9  C   UNL     1     -25.238 -17.399 146.346  1.00  0.00     0.072 A 
ATOM     10  N   UNL     1     -26.877 -14.270 146.381  1.00  0.00    -0.280 N 
ATOM     11  C   UNL     1     -28.126 -14.370 146.941  1.00  0.00     0.130 A 
ATOM     12  C   UNL     1     -29.057 -13.483 146.883  1.00  0.00     0.061 A 
ATOM     13  C   UNL     1     -28.806 -12.306 146.128  1.00  0.00     0.094 A 
ATOM     14  N   UNL     1     -28.411 -15.657 147.571  1.00  0.00    -0.310 N 
ATOM     15  N   UNL     1     -25.604 -18.799 146.454  1.00  0.00    -0.237 NA
ATOM     16  C   UNL     1     -29.524 -15.827 148.269  1.00  0.00     0.220 A 
ATOM     17  C   UNL     1     -27.541 -12.076 145.631  1.00  0.00     0.088 A 
ATOM     18  N   UNL     1     -26.208 -10.563 144.796  1.00  0.00    -0.218 NA
ATOM     19  N   UNL     1     -29.598 -11.134 145.777  1.00  0.00    -0.210 NA
ATOM     20  C   UNL     1     -24.677 -19.644 146.418  1.00  0.00     0.222 A 
ATOM     21  N   UNL     1     -30.481 -14.825 148.224  1.00  0.00    -0.221 NA
ATOM     22  C   UNL     1     -27.415 -10.883 145.142  1.00  0.00     0.170 A 
ATOM     23  N   UNL     1     -28.504 -10.035 144.870  1.00  0.00    -0.191 NA
ATOM     24  C   UNL     1     -29.708 -10.290 145.204  1.00  0.00     0.244 A 
ATOM     25  C   UNL     1     -26.171 -16.584 146.980  1.00  0.00     0.055 C 
ATOM     26  N   UNL     1     -29.738 -16.794 149.233  1.00  0.00    -0.267 NA
ATOM     27  C   UNL     1     -22.884 -18.149 146.305  1.00  0.00     0.119 A 
ATOM     28  C   UNL     1     -30.307 -13.670 147.526  1.00  0.00     0.129 A 
ATOM     29  N   UNL     1     -23.290 -19.366 146.429  1.00  0.00    -0.244 NA
ATOM     30  N   UNL     1     -30.711  -9.427 145.001  1.00  0.00    -0.265 NA
ATOM     31  H   UNL     1    -162.544 -37.258 195.421  1.00  0.00     0.171 HD
ATOM     32  H   UNL     1    -162.544 -37.258 195.421  1.00  0.00     0.191 HD
ATOM     33  H   UNL     1    -162.544 -37.258 195.421  1.00  0.00     0.191 HD
ENDROOT
TORSDOF 0
ENDMDL
MODEL 7
REMARK VINA RESULT:      -9.2      2.147      6.629
REMARK SMILES N=c1nc2ncn3cc4c(n5c6[nH]c(=N)ncc6c(n1)c2c35)=Cc1ncncc1C4
REMARK SMILES IDX 8 1 9 2 30 3 10 4 29 5 7 6 6 7 22 8 24 9 11 10 12 11 18 12
REMARK SMILES IDX 19 13 13 14 25 15 14 16 21 17 5 18 20 19 26 20 16 21 4 22
REMARK SMILES IDX 3 23 2 24 23 25 15 26 28 27 17 28 27 29 1 30
REMARK H PARENT 13 31 15 32 1 33
REMARK Flexibility Score: inf
ROOT
ATOM      1  C   UNL     1     -25.531 -14.021 143.453  1.00  0.00     0.100 A 
ATOM      2  C   UNL     1     -26.618 -13.502 143.672  1.00  0.00    -0.002 A 
ATOM      3  C   UNL     1     -27.291 -12.629 142.818  1.00  0.00     0.078 C 
ATOM      4  C   UNL     1     -27.414 -13.673 144.933  1.00  0.00     0.056 A 
ATOM      5  C   UNL     1     -28.044 -11.529 143.149  1.00  0.00     0.001 A 
ATOM      6  N   UNL     1     -24.921 -14.918 144.454  1.00  0.00    -0.292 N 
ATOM      7  C   UNL     1     -23.871 -15.662 144.293  1.00  0.00     0.208 A 
ATOM      8  C   UNL     1     -25.670 -14.945 145.580  1.00  0.00     0.137 A 
ATOM      9  C   UNL     1     -28.431 -11.564 144.560  1.00  0.00     0.072 A 
ATOM     10  N   UNL     1     -26.901 -14.464 145.875  1.00  0.00    -0.280 N 
ATOM     11  C   UNL     1     -27.570 -14.919 146.983  1.00  0.00     0.130 A 
ATOM     12  C   UNL     1     -27.139 -15.793 147.824  1.00  0.00     0.061 A 
ATOM     13  C   UNL     1     -25.828 -16.307 147.633  1.00  0.00     0.094 A 
ATOM     14  N   UNL     1     -28.845 -14.254 147.243  1.00  0.00    -0.310 N 
ATOM     15  N   UNL     1     -29.353 -10.540 145.018  1.00  0.00    -0.237 NA
ATOM     16  C   UNL     1     -29.648 -14.699 148.197  1.00  0.00     0.220 A 
ATOM     17  C   UNL     1     -25.135 -15.990 146.484  1.00  0.00     0.088 A 
ATOM     18  N   UNL     1     -23.437 -16.532 145.225  1.00  0.00    -0.218 NA
ATOM     19  N   UNL     1     -24.979 -17.231 148.374  1.00  0.00    -0.210 NA
ATOM     20  C   UNL     1     -29.684  -9.651 144.196  1.00  0.00     0.222 A 
ATOM     21  N   UNL     1     -29.165 -15.679 149.050  1.00  0.00    -0.221 NA
ATOM     22  C   UNL     1     -24.049 -16.684 146.357  1.00  0.00     0.170 A 
ATOM     23  N   UNL     1     -23.484 -17.440 147.400  1.00  0.00    -0.191 NA
ATOM     24  C   UNL     1     -24.050 -17.638 148.525  1.00  0.00     0.244 A 
ATOM     25  C   UNL     1     -28.606 -12.751 145.265  1.00  0.00     0.055 C 
ATOM     26  N   UNL     1     -31.007 -14.463 148.290  1.00  0.00    -0.267 NA
ATOM     27  C   UNL     1     -28.529 -10.480 142.342  1.00  0.00     0.119 A 
ATOM     28  C   UNL     1     -27.924 -16.221 148.924  1.00  0.00     0.129 A 
ATOM     29  N   UNL     1     -29.366  -9.623 142.819  1.00  0.00    -0.244 NA
ATOM     30  N   UNL     1     -23.522 -18.427 149.469  1.00  0.00    -0.265 NA
ATOM     31  H   UNL     1     -96.683 -47.558 269.867  1.00  0.00     0.171 HD
ATOM     32  H   UNL     1     -96.683 -47.558 269.867  1.00  0.00     0.191 HD
ATOM     33  H   UNL     1     -96.683 -47.558 269.867  1.00  0.00     0.191 HD
ENDROOT
TORSDOF 0
ENDMDL
MODEL 8
REMARK VINA RESULT:      -9.2      2.826      5.040
REMARK SMILES N=c1nc2ncn3cc4c(n5c6[nH]c(=N)ncc6c(n1)c2c35)=Cc1ncncc1C4
REMARK SMILES IDX 8 1 9 2 30 3 10 4 29 5 7 6 6 7 22 8 24 9 11 10 12 11 18 12
REMARK SMILES IDX 19 13 13 14 25 15 14 16 21 17 5 18 20 19 26 20 16 21 4 22
REMARK SMILES IDX 3 23 2 24 23 25 15 26 28 27 17 28 27 29 1 30
REMARK H PARENT 13 31 15 32 1 33
REMARK Flexibility Score: inf
ROOT
ATOM      1  C   UNL     1     -28.354 -13.494 146.871  1.00  0.00     0.100 A 
ATOM      2  C   UNL     1     -27.618 -14.156 146.149  1.00  0.00    -0.002 A 
ATOM      3  C   UNL     1     -26.960 -15.328 146.514  1.00  0.00     0.078 C 
ATOM      4  C   UNL     1     -27.248 -13.797 144.739  1.00  0.00     0.056 A 
ATOM      5  C   UNL     1     -25.702 -15.744 146.151  1.00  0.00     0.001 A 
ATOM      6  N   UNL     1     -28.979 -12.257 146.361  1.00  0.00    -0.292 N 
ATOM      7  C   UNL     1     -29.900 -11.555 146.945  1.00  0.00     0.208 A 
ATOM      8  C   UNL     1     -28.524 -11.978 145.118  1.00  0.00     0.137 A 
ATOM      9  C   UNL     1     -25.225 -15.011 144.977  1.00  0.00     0.072 A 
ATOM     10  N   UNL     1     -27.776 -12.682 144.235  1.00  0.00    -0.280 N 
ATOM     11  C   UNL     1     -27.741 -12.311 142.915  1.00  0.00     0.130 A 
ATOM     12  C   UNL     1     -28.364 -11.315 142.389  1.00  0.00     0.061 A 
ATOM     13  C   UNL     1     -29.124 -10.478 143.251  1.00  0.00     0.094 A 
ATOM     14  N   UNL     1     -26.824 -13.091 142.086  1.00  0.00    -0.310 N 
ATOM     15  N   UNL     1     -23.971 -15.445 144.391  1.00  0.00    -0.237 NA
ATOM     16  C   UNL     1     -26.806 -12.924 140.772  1.00  0.00     0.220 A 
ATOM     17  C   UNL     1     -29.305 -10.846 144.567  1.00  0.00     0.088 A 
ATOM     18  N   UNL     1     -30.492 -10.493 146.364  1.00  0.00    -0.218 NA
ATOM     19  N   UNL     1     -29.895  -9.256 143.063  1.00  0.00    -0.210 NA
ATOM     20  C   UNL     1     -23.344 -16.360 144.979  1.00  0.00     0.222 A 
ATOM     21  N   UNL     1     -27.533 -11.871 140.239  1.00  0.00    -0.221 NA
ATOM     22  C   UNL     1     -30.175 -10.100 145.171  1.00  0.00     0.170 A 
ATOM     23  N   UNL     1     -30.647  -8.881 144.651  1.00  0.00    -0.191 NA
ATOM     24  C   UNL     1     -30.383  -8.455 143.478  1.00  0.00     0.244 A 
ATOM     25  C   UNL     1     -26.083 -14.497 144.009  1.00  0.00     0.055 C 
ATOM     26  N   UNL     1     -26.328 -13.831 139.845  1.00  0.00    -0.267 NA
ATOM     27  C   UNL     1     -24.895 -16.774 146.676  1.00  0.00     0.119 A 
ATOM     28  C   UNL     1     -28.286 -11.033 141.002  1.00  0.00     0.129 A 
ATOM     29  N   UNL     1     -23.805 -17.117 146.080  1.00  0.00    -0.244 NA
ATOM     30  N   UNL     1     -30.911  -7.329 142.984  1.00  0.00    -0.265 NA
ATOM     31  H   UNL     1      -7.982  30.327   6.042  1.00  0.00     0.171 HD
ATOM     32  H   UNL     1      -7.982  30.327   6.042  1.00  0.00     0.191 HD
ATOM     33  H   UNL     1      -7.982  30.327   6.042  1.00  0.00     0.191 HD
ENDROOT
TORSDOF 0
ENDMDL
MODEL 9
REMARK VINA RESULT:      -8.9      1.520      4.268
REMARK SMILES N=c1nc2ncn3cc4c(n5c6[nH]c(=N)ncc6c(n1)c2c35)=Cc1ncncc1C4
REMARK SMILES IDX 8 1 9 2 30 3 10 4 29 5 7 6 6 7 22 8 24 9 11 10 12 11 18 12
REMARK SMILES IDX 19 13 13 14 25 15 14 16 21 17 5 18 20 19 26 20 16 21 4 22
REMARK SMILES IDX 3 23 2 24 23 25 15 26 28 27 17 28 27 29 1 30
REMARK H PARENT 13 31 15 32 1 33
REMARK Flexibility Score: inf
ROOT
ATOM      1  C   UNL     1     -27.159 -13.322 146.374  1.00  0.00     0.100 A 
ATOM      2  C   UNL     1     -26.679 -14.402 146.695  1.00  0.00    -0.002 A 
ATOM      3  C   UNL     1     -25.460 -14.914 146.254  1.00  0.00     0.078 C 
ATOM      4  C   UNL     1     -27.343 -15.405 147.594  1.00  0.00     0.056 A 
ATOM      5  C   UNL     1     -25.145 -16.218 145.954  1.00  0.00     0.001 A 
ATOM      6  N   UNL     1     -28.472 -12.905 146.905  1.00  0.00    -0.292 N 
ATOM      7  C   UNL     1     -29.021 -11.735 146.790  1.00  0.00     0.208 A 
ATOM      8  C   UNL     1     -29.022 -13.903 147.635  1.00  0.00     0.137 A 
ATOM      9  C   UNL     1     -26.123 -17.140 146.533  1.00  0.00     0.072 A 
ATOM     10  N   UNL     1     -28.536 -15.082 148.090  1.00  0.00    -0.280 N 
ATOM     11  C   UNL     1     -29.190 -15.754 149.092  1.00  0.00     0.130 A 
ATOM     12  C   UNL     1     -30.272 -15.377 149.678  1.00  0.00     0.061 A 
ATOM     13  C   UNL     1     -30.891 -14.181 149.223  1.00  0.00     0.094 A 
ATOM     14  N   UNL     1     -28.620 -17.057 149.426  1.00  0.00    -0.310 N 
ATOM     15  N   UNL     1     -25.839 -18.559 146.423  1.00  0.00    -0.237 NA
ATOM     16  C   UNL     1     -29.072 -17.737 150.469  1.00  0.00     0.220 A 
ATOM     17  C   UNL     1     -30.241 -13.389 148.302  1.00  0.00     0.088 A 
ATOM     18  N   UNL     1     -30.179 -11.406 147.393  1.00  0.00    -0.218 NA
ATOM     19  N   UNL     1     -32.118 -13.475 149.570  1.00  0.00    -0.210 NA
ATOM     20  C   UNL     1     -24.823 -18.896 145.768  1.00  0.00     0.222 A 
ATOM     21  N   UNL     1     -30.210 -17.269 151.107  1.00  0.00    -0.221 NA
ATOM     22  C   UNL     1     -30.829 -12.246 148.135  1.00  0.00     0.170 A 
ATOM     23  N   UNL     1     -32.128 -11.966 148.596  1.00  0.00    -0.191 NA
ATOM     24  C   UNL     1     -32.804 -12.747 149.344  1.00  0.00     0.244 A 
ATOM     25  C   UNL     1     -26.830 -16.856 147.698  1.00  0.00     0.055 C 
ATOM     26  N   UNL     1     -28.395 -18.736 151.142  1.00  0.00    -0.267 NA
ATOM     27  C   UNL     1     -24.032 -16.753 145.276  1.00  0.00     0.119 A 
ATOM     28  C   UNL     1     -30.853 -16.130 150.729  1.00  0.00     0.129 A 
ATOM     29  N   UNL     1     -23.838 -18.027 145.245  1.00  0.00    -0.244 NA
ATOM     30  N   UNL     1     -34.007 -12.418 149.830  1.00  0.00    -0.265 NA
ATOM     31  H   UNL     1    -101.102 -98.453 243.601  1.00  0.00     0.171 HD
ATOM     32  H   UNL     1    -101.102 -98.453 243.601  1.00  0.00     0.191 HD
ATOM     33  H   UNL     1    -101.102 -98.453 243.601  1.00  0.00     0.191 HD
ENDROOT
TORSDOF 0
ENDMDL
MODEL 10
REMARK VINA RESULT:      -8.8      2.047      5.864
REMARK SMILES N=c1nc2ncn3cc4c(n5c6[nH]c(=N)ncc6c(n1)c2c35)=Cc1ncncc1C4
REMARK SMILES IDX 8 1 9 2 30 3 10 4 29 5 7 6 6 7 22 8 24 9 11 10 12 11 18 12
REMARK SMILES IDX 19 13 13 14 25 15 14 16 21 17 5 18 20 19 26 20 16 21 4 22
REMARK SMILES IDX 3 23 2 24 23 25 15 26 28 27 17 28 27 29 1 30
REMARK H PARENT 13 31 15 32 1 33
REMARK Flexibility Score: inf
ROOT
ATOM      1  C   UNL     1     -31.253 -14.718 150.261  1.00  0.00     0.100 A 
ATOM      2  C   UNL     1     -30.637 -15.776 150.257  1.00  0.00    -0.002 A 
ATOM      3  C   UNL     1     -30.832 -16.836 151.141  1.00  0.00     0.078 C 
ATOM      4  C   UNL     1     -29.512 -16.113 149.320  1.00  0.00     0.056 A 
ATOM      5  C   UNL     1     -29.888 -17.670 151.689  1.00  0.00     0.001 A 
ATOM      6  N   UNL     1     -30.935 -13.668 149.273  1.00  0.00    -0.292 N 
ATOM      7  C   UNL     1     -31.606 -12.582 149.051  1.00  0.00     0.208 A 
ATOM      8  C   UNL     1     -29.862 -14.031 148.531  1.00  0.00     0.137 A 
ATOM      9  C   UNL     1     -28.634 -17.610 150.936  1.00  0.00     0.072 A 
ATOM     10  N   UNL     1     -29.177 -15.194 148.417  1.00  0.00    -0.280 N 
ATOM     11  C   UNL     1     -28.344 -15.397 147.346  1.00  0.00     0.130 A 
ATOM     12  C   UNL     1     -28.121 -14.566 146.388  1.00  0.00     0.061 A 
ATOM     13  C   UNL     1     -28.748 -13.292 146.457  1.00  0.00     0.094 A 
ATOM     14  N   UNL     1     -27.590 -16.648 147.388  1.00  0.00    -0.310 N 
ATOM     15  N   UNL     1     -27.592 -18.548 151.311  1.00  0.00    -0.237 NA
ATOM     16  C   UNL     1     -26.863 -17.025 146.347  1.00  0.00     0.220 A 
ATOM     17  C   UNL     1     -29.687 -13.050 147.436  1.00  0.00     0.088 A 
ATOM     18  N   UNL     1     -31.304 -11.723 148.058  1.00  0.00    -0.218 NA
ATOM     19  N   UNL     1     -28.702 -12.090 145.633  1.00  0.00    -0.210 NA
ATOM     20  C   UNL     1     -27.807 -19.283 152.305  1.00  0.00     0.222 A 
ATOM     21  N   UNL     1     -26.690 -16.120 145.311  1.00  0.00    -0.221 NA
ATOM     22  C   UNL     1     -30.310 -11.929 147.252  1.00  0.00     0.170 A 
ATOM     23  N   UNL     1     -29.879 -10.938 146.351  1.00  0.00    -0.191 NA
ATOM     24  C   UNL     1     -28.921 -11.094 145.524  1.00  0.00     0.244 A 
ATOM     25  C   UNL     1     -28.585 -17.319 149.576  1.00  0.00     0.055 C 
ATOM     26  N   UNL     1     -26.449 -18.315 146.070  1.00  0.00    -0.267 NA
ATOM     27  C   UNL     1     -29.987 -18.578 152.763  1.00  0.00     0.119 A 
ATOM     28  C   UNL     1     -27.263 -14.886 145.306  1.00  0.00     0.129 A 
ATOM     29  N   UNL     1     -29.024 -19.397 153.016  1.00  0.00    -0.244 NA
ATOM     30  N   UNL     1     -28.585 -10.161 144.625  1.00  0.00    -0.265 NA
ATOM     31  H   UNL     1      71.980 -36.995  45.310  1.00  0.00     0.171 HD
ATOM     32  H   UNL     1      71.980 -36.995  45.310  1.00  0.00     0.191 HD
ATOM     33  H   UNL     1      71.980 -36.995  45.310  1.00  0.00     0.191 HD
ENDROOT
TORSDOF 0
ENDMDL
