MODEL 1
REMARK VINA RESULT:     -11.9      0.000      0.000
REMARK SMILES CN1C(=O)NC2=NCN3C=C4CC5=C(N=C4n4c3c2c1nc4=O)NCc1ccccc15
REMARK SMILES IDX 10 1 11 2 12 3 16 4 13 5 9 6 8 7 18 8 14 9 17 10 19 11 20 12
REMARK SMILES IDX 31 13 21 14 6 15 26 16 5 17 30 18 29 19 22 20 7 21 28 22
REMARK SMILES IDX 15 23 2 24 3 25 1 26 4 27 25 28 24 29 27 30 23 31
REMARK H PARENT 5 32 24 33
REMARK Flexibility Score: inf
ROOT
ATOM      1  C   UNL     1     -29.454 -12.650 147.840  1.00  0.00     0.097 C 
ATOM      2  C   UNL     1     -29.865 -13.738 148.224  1.00  0.00     0.017 C 
ATOM      3  C   UNL     1     -30.979 -13.947 149.036  1.00  0.00     0.081 C 
ATOM      4  C   UNL     1     -29.212 -15.058 147.929  1.00  0.00     0.150 C 
ATOM      5  C   UNL     1     -31.141 -14.878 150.033  1.00  0.00     0.007 C 
ATOM      6  N   UNL     1     -28.247 -12.569 146.993  1.00  0.00    -0.313 N 
ATOM      7  C   UNL     1     -27.798 -11.518 146.380  1.00  0.00     0.269 C 
ATOM      8  C   UNL     1     -27.690 -13.794 146.850  1.00  0.00     0.139 A 
ATOM      9  C   UNL     1     -30.150 -15.949 149.916  1.00  0.00     0.132 C 
ATOM     10  N   UNL     1     -28.112 -15.038 147.178  1.00  0.00    -0.228 N 
ATOM     11  C   UNL     1     -26.562 -13.979 145.993  1.00  0.00     0.102 A 
ATOM     12  C   UNL     1     -26.052 -15.199 145.662  1.00  0.00     0.157 A 
ATOM     13  C   UNL     1     -32.244 -14.975 150.916  1.00  0.00    -0.013 A 
ATOM     14  N   UNL     1     -26.620 -16.361 146.082  1.00  0.00    -0.174 NA
ATOM     15  C   UNL     1     -25.760 -12.826 145.379  1.00  0.00     0.145 C 
ATOM     16  C   UNL     1     -32.113 -16.060 151.879  1.00  0.00    -0.021 A 
ATOM     17  N   UNL     1     -24.671 -12.960 144.758  1.00  0.00    -0.291 N 
ATOM     18  C   UNL     1     -33.375 -14.328 150.809  1.00  0.00     0.009 A 
ATOM     19  C   UNL     1     -34.521 -14.566 151.599  1.00  0.00     0.001 A 
ATOM     20  C   UNL     1     -27.676 -16.286 146.840  1.00  0.00     0.357 A 
ATOM     21  N   UNL     1     -26.384 -11.654 145.481  1.00  0.00    -0.245 NA
ATOM     22  C   UNL     1     -34.541 -15.726 152.153  1.00  0.00     0.000 A 
ATOM     23  N   UNL     1     -29.304 -16.066 148.875  1.00  0.00    -0.213 NA
ATOM     24  N   UNL     1     -24.842 -15.278 144.878  1.00  0.00    -0.280 N 
ATOM     25  C   UNL     1     -24.161 -14.208 144.515  1.00  0.00     0.328 C 
ATOM     26  C   UNL     1     -24.136 -16.486 144.638  1.00  0.00     0.157 C 
ATOM     27  O   UNL     1     -23.090 -14.196 143.967  1.00  0.00    -0.248 OA
ATOM     28  C   UNL     1     -30.947 -16.771 152.127  1.00  0.00     0.151 C 
ATOM     29  N   UNL     1     -30.132 -17.029 150.861  1.00  0.00    -0.366 N 
ATOM     30  C   UNL     1     -33.361 -16.451 152.463  1.00  0.00     0.006 A 
ATOM     31  O   UNL     1     -28.202 -17.496 147.171  1.00  0.00    -0.245 OA
ATOM     32  H   UNL     1      41.186-135.800 102.985  1.00  0.00     0.173 HD
ATOM     33  H   UNL     1      41.186-135.800 102.985  1.00  0.00     0.162 HD
ENDROOT
TORSDOF 0
ENDMDL
MODEL 2
REMARK VINA RESULT:     -11.1      2.994      8.311
REMARK SMILES CN1C(=O)NC2=NCN3C=C4CC5=C(N=C4n4c3c2c1nc4=O)NCc1ccccc15
REMARK SMILES IDX 10 1 11 2 12 3 16 4 13 5 9 6 8 7 18 8 14 9 17 10 19 11 20 12
REMARK SMILES IDX 31 13 21 14 6 15 26 16 5 17 30 18 29 19 22 20 7 21 28 22
REMARK SMILES IDX 15 23 2 24 3 25 1 26 4 27 25 28 24 29 27 30 23 31
REMARK H PARENT 5 32 24 33
REMARK Flexibility Score: inf
ROOT
ATOM      1  C   UNL     1     -30.520 -12.419 148.334  1.00  0.00     0.097 C 
ATOM      2  C   UNL     1     -29.727 -13.351 148.292  1.00  0.00     0.017 C 
ATOM      3  C   UNL     1     -28.586 -13.415 147.496  1.00  0.00     0.081 C 
ATOM      4  C   UNL     1     -29.866 -14.633 149.063  1.00  0.00     0.150 C 
ATOM      5  C   UNL     1     -28.060 -14.507 146.850  1.00  0.00     0.007 C 
ATOM      6  N   UNL     1     -31.703 -12.488 149.215  1.00  0.00    -0.313 N 
ATOM      7  C   UNL     1     -32.526 -11.523 149.488  1.00  0.00     0.269 C 
ATOM      8  C   UNL     1     -31.781 -13.704 149.803  1.00  0.00     0.139 A 
ATOM      9  C   UNL     1     -28.597 -15.752 147.402  1.00  0.00     0.132 C 
ATOM     10  N   UNL     1     -30.923 -14.750 149.864  1.00  0.00    -0.228 N 
ATOM     11  C   UNL     1     -32.795 -13.973 150.774  1.00  0.00     0.102 A 
ATOM     12  C   UNL     1     -32.837 -15.106 151.532  1.00  0.00     0.157 A 
ATOM     13  C   UNL     1     -26.966 -14.501 145.949  1.00  0.00    -0.013 A 
ATOM     14  N   UNL     1     -31.871 -16.060 151.467  1.00  0.00    -0.174 NA
ATOM     15  C   UNL     1     -33.983 -13.044 151.046  1.00  0.00     0.145 C 
ATOM     16  C   UNL     1     -26.659 -15.819 145.412  1.00  0.00    -0.021 A 
ATOM     17  N   UNL     1     -34.969 -13.336 151.774  1.00  0.00    -0.291 N 
ATOM     18  C   UNL     1     -26.153 -13.500 145.734  1.00  0.00     0.009 A 
ATOM     19  C   UNL     1     -24.972 -13.570 144.963  1.00  0.00     0.001 A 
ATOM     20  C   UNL     1     -30.887 -15.878 150.632  1.00  0.00     0.357 A 
ATOM     21  N   UNL     1     -33.825 -11.836 150.508  1.00  0.00    -0.245 NA
ATOM     22  C   UNL     1     -24.511 -14.762 144.822  1.00  0.00     0.000 A 
ATOM     23  N   UNL     1     -29.379 -15.800 148.496  1.00  0.00    -0.213 NA
ATOM     24  N   UNL     1     -33.963 -15.337 152.407  1.00  0.00    -0.280 N 
ATOM     25  C   UNL     1     -34.999 -14.522 152.459  1.00  0.00     0.328 C 
ATOM     26  C   UNL     1     -34.188 -16.558 153.094  1.00  0.00     0.157 C 
ATOM     27  O   UNL     1     -36.019 -14.705 153.069  1.00  0.00    -0.248 OA
ATOM     28  C   UNL     1     -27.477 -16.936 145.520  1.00  0.00     0.151 C 
ATOM     29  N   UNL     1     -28.187 -17.020 146.870  1.00  0.00    -0.366 N 
ATOM     30  C   UNL     1     -25.334 -15.916 144.876  1.00  0.00     0.006 A 
ATOM     31  O   UNL     1     -29.946 -16.859 150.670  1.00  0.00    -0.245 OA
ATOM     32  H   UNL     1     -53.064-129.548 237.444  1.00  0.00     0.173 HD
ATOM     33  H   UNL     1     -53.064-129.548 237.444  1.00  0.00     0.162 HD
ENDROOT
TORSDOF 0
ENDMDL
MODEL 3
REMARK VINA RESULT:     -10.9      4.999      7.602
REMARK SMILES CN1C(=O)NC2=NCN3C=C4CC5=C(N=C4n4c3c2c1nc4=O)NCc1ccccc15
REMARK SMILES IDX 10 1 11 2 12 3 16 4 13 5 9 6 8 7 18 8 14 9 17 10 19 11 20 12
REMARK SMILES IDX 31 13 21 14 6 15 26 16 5 17 30 18 29 19 22 20 7 21 28 22
REMARK SMILES IDX 15 23 2 24 3 25 1 26 4 27 25 28 24 29 27 30 23 31
REMARK H PARENT 5 32 24 33
REMARK Flexibility Score: inf
ROOT
ATOM      1  C   UNL     1     -28.846 -11.318 145.364  1.00  0.00     0.097 C 
ATOM      2  C   UNL     1     -28.182 -12.276 144.986  1.00  0.00     0.017 C 
ATOM      3  C   UNL     1     -27.733 -13.323 145.789  1.00  0.00     0.081 C 
ATOM      4  C   UNL     1     -27.683 -12.476 143.584  1.00  0.00     0.150 C 
ATOM      5  C   UNL     1     -26.536 -13.993 145.719  1.00  0.00     0.007 C 
ATOM      6  N   UNL     1     -29.244 -10.266 144.408  1.00  0.00    -0.313 N 
ATOM      7  C   UNL     1     -30.076  -9.295 144.623  1.00  0.00     0.269 C 
ATOM      8  C   UNL     1     -28.683 -10.494 143.198  1.00  0.00     0.139 A 
ATOM      9  C   UNL     1     -25.888 -13.777 144.425  1.00  0.00     0.132 C 
ATOM     10  N   UNL     1     -28.005 -11.548 142.685  1.00  0.00    -0.228 N 
ATOM     11  C   UNL     1     -29.001  -9.656 142.085  1.00  0.00     0.102 A 
ATOM     12  C   UNL     1     -28.617  -9.919 140.803  1.00  0.00     0.157 A 
ATOM     13  C   UNL     1     -26.069 -14.970 146.634  1.00  0.00    -0.013 A 
ATOM     14  N   UNL     1     -27.939 -11.048 140.465  1.00  0.00    -0.174 NA
ATOM     15  C   UNL     1     -29.772  -8.337 142.203  1.00  0.00     0.145 C 
ATOM     16  C   UNL     1     -24.749 -15.484 146.298  1.00  0.00    -0.021 A 
ATOM     17  N   UNL     1     -29.921  -7.506 141.267  1.00  0.00    -0.291 N 
ATOM     18  C   UNL     1     -26.773 -15.538 147.578  1.00  0.00     0.009 A 
ATOM     19  C   UNL     1     -26.340 -16.628 148.364  1.00  0.00     0.001 A 
ATOM     20  C   UNL     1     -27.637 -11.887 141.415  1.00  0.00     0.357 A 
ATOM     21  N   UNL     1     -30.365  -8.193 143.387  1.00  0.00    -0.245 NA
ATOM     22  C   UNL     1     -25.382 -17.305 147.835  1.00  0.00     0.000 A 
ATOM     23  N   UNL     1     -26.476 -13.132 143.401  1.00  0.00    -0.213 NA
ATOM     24  N   UNL     1     -28.893  -8.954 139.763  1.00  0.00    -0.280 N 
ATOM     25  C   UNL     1     -29.450  -7.785 140.011  1.00  0.00     0.328 C 
ATOM     26  C   UNL     1     -28.378  -9.049 138.445  1.00  0.00     0.157 C 
ATOM     27  O   UNL     1     -29.603  -6.887 139.226  1.00  0.00    -0.248 OA
ATOM     28  C   UNL     1     -23.887 -14.924 145.363  1.00  0.00     0.151 C 
ATOM     29  N   UNL     1     -24.619 -14.382 144.137  1.00  0.00    -0.366 N 
ATOM     30  C   UNL     1     -24.458 -16.742 146.918  1.00  0.00     0.006 A 
ATOM     31  O   UNL     1     -27.002 -13.007 140.977  1.00  0.00    -0.245 OA
ATOM     32  H   UNL     1       5.799 -21.835   0.944  1.00  0.00     0.173 HD
ATOM     33  H   UNL     1       5.799 -21.835   0.944  1.00  0.00     0.162 HD
ENDROOT
TORSDOF 0
ENDMDL
MODEL 4
REMARK VINA RESULT:     -10.9      4.127      8.567
REMARK SMILES CN1C(=O)NC2=NCN3C=C4CC5=C(N=C4n4c3c2c1nc4=O)NCc1ccccc15
REMARK SMILES IDX 10 1 11 2 12 3 16 4 13 5 9 6 8 7 18 8 14 9 17 10 19 11 20 12
REMARK SMILES IDX 31 13 21 14 6 15 26 16 5 17 30 18 29 19 22 20 7 21 28 22
REMARK SMILES IDX 15 23 2 24 3 25 1 26 4 27 25 28 24 29 27 30 23 31
REMARK H PARENT 5 32 24 33
REMARK Flexibility Score: inf
ROOT
ATOM      1  C   UNL     1     -29.526 -11.240 145.015  1.00  0.00     0.097 C 
ATOM      2  C   UNL     1     -28.730 -11.248 144.085  1.00  0.00     0.017 C 
ATOM      3  C   UNL     1     -28.729 -10.367 143.006  1.00  0.00     0.081 C 
ATOM      4  C   UNL     1     -27.624 -12.248 143.909  1.00  0.00     0.150 C 
ATOM      5  C   UNL     1     -28.430 -10.633 141.692  1.00  0.00     0.007 C 
ATOM      6  N   UNL     1     -29.422 -12.245 146.092  1.00  0.00    -0.313 N 
ATOM      7  C   UNL     1     -30.079 -12.257 147.210  1.00  0.00     0.269 C 
ATOM      8  C   UNL     1     -28.452 -13.144 145.804  1.00  0.00     0.139 A 
ATOM      9  C   UNL     1     -27.696 -11.893 141.566  1.00  0.00     0.132 C 
ATOM     10  N   UNL     1     -27.494 -13.185 144.848  1.00  0.00    -0.228 N 
ATOM     11  C   UNL     1     -28.104 -14.159 146.748  1.00  0.00     0.102 A 
ATOM     12  C   UNL     1     -27.032 -14.989 146.608  1.00  0.00     0.157 A 
ATOM     13  C   UNL     1     -28.563  -9.735 140.604  1.00  0.00    -0.013 A 
ATOM     14  N   UNL     1     -26.157 -14.878 145.573  1.00  0.00    -0.174 NA
ATOM     15  C   UNL     1     -28.922 -14.469 148.006  1.00  0.00     0.145 C 
ATOM     16  C   UNL     1     -28.183 -10.322 139.327  1.00  0.00    -0.021 A 
ATOM     17  N   UNL     1     -28.729 -15.460 148.761  1.00  0.00    -0.291 N 
ATOM     18  C   UNL     1     -28.800  -8.452 140.691  1.00  0.00     0.009 A 
ATOM     19  C   UNL     1     -28.758  -7.547 139.608  1.00  0.00     0.001 A 
ATOM     20  C   UNL     1     -26.379 -13.953 144.683  1.00  0.00     0.357 A 
ATOM     21  N   UNL     1     -29.814 -13.520 148.287  1.00  0.00    -0.245 NA
ATOM     22  C   UNL     1     -28.073  -7.967 138.603  1.00  0.00     0.000 A 
ATOM     23  N   UNL     1     -27.250 -12.599 142.622  1.00  0.00    -0.213 NA
ATOM     24  N   UNL     1     -26.827 -16.056 147.560  1.00  0.00    -0.280 N 
ATOM     25  C   UNL     1     -27.679 -16.310 148.535  1.00  0.00     0.328 C 
ATOM     26  C   UNL     1     -25.854 -17.076 147.401  1.00  0.00     0.157 C 
ATOM     27  O   UNL     1     -27.641 -17.245 149.289  1.00  0.00    -0.248 OA
ATOM     28  C   UNL     1     -27.971 -11.676 139.101  1.00  0.00     0.151 C 
ATOM     29  N   UNL     1     -27.286 -12.370 140.276  1.00  0.00    -0.366 N 
ATOM     30  C   UNL     1     -27.886  -9.345 138.322  1.00  0.00     0.006 A 
ATOM     31  O   UNL     1     -25.428 -13.887 143.712  1.00  0.00    -0.245 OA
ATOM     32  H   UNL     1      80.447-111.605 145.845  1.00  0.00     0.173 HD
ATOM     33  H   UNL     1      80.447-111.605 145.845  1.00  0.00     0.162 HD
ENDROOT
TORSDOF 0
ENDMDL
MODEL 5
REMARK VINA RESULT:     -10.9      3.295      7.315
REMARK SMILES CN1C(=O)NC2=NCN3C=C4CC5=C(N=C4n4c3c2c1nc4=O)NCc1ccccc15
REMARK SMILES IDX 10 1 11 2 12 3 16 4 13 5 9 6 8 7 18 8 14 9 17 10 19 11 20 12
REMARK SMILES IDX 31 13 21 14 6 15 26 16 5 17 30 18 29 19 22 20 7 21 28 22
REMARK SMILES IDX 15 23 2 24 3 25 1 26 4 27 25 28 24 29 27 30 23 31
REMARK H PARENT 5 32 24 33
REMARK Flexibility Score: inf
ROOT
ATOM      1  C   UNL     1     -29.497 -12.851 146.553  1.00  0.00     0.097 C 
ATOM      2  C   UNL     1     -28.903 -12.161 145.734  1.00  0.00     0.017 C 
ATOM      3  C   UNL     1     -29.427 -11.054 145.069  1.00  0.00     0.081 C 
ATOM      4  C   UNL     1     -27.502 -12.410 145.254  1.00  0.00     0.150 C 
ATOM      5  C   UNL     1     -29.211 -10.663 143.770  1.00  0.00     0.007 C 
ATOM      6  N   UNL     1     -28.825 -14.010 147.175  1.00  0.00    -0.313 N 
ATOM      7  C   UNL     1     -29.263 -14.720 148.167  1.00  0.00     0.269 C 
ATOM      8  C   UNL     1     -27.604 -14.198 146.622  1.00  0.00     0.139 A 
ATOM      9  C   UNL     1     -28.020 -11.310 143.218  1.00  0.00     0.132 C 
ATOM     10  N   UNL     1     -26.856 -13.452 145.775  1.00  0.00    -0.228 N 
ATOM     11  C   UNL     1     -26.729 -15.206 147.130  1.00  0.00     0.102 A 
ATOM     12  C   UNL     1     -25.428 -15.345 146.747  1.00  0.00     0.157 A 
ATOM     13  C   UNL     1     -29.862  -9.599 143.097  1.00  0.00    -0.013 A 
ATOM     14  N   UNL     1     -24.831 -14.485 145.880  1.00  0.00    -0.174 NA
ATOM     15  C   UNL     1     -27.160 -16.284 148.132  1.00  0.00     0.145 C 
ATOM     16  C   UNL     1     -29.428  -9.445 141.715  1.00  0.00    -0.021 A 
ATOM     17  N   UNL     1     -26.457 -17.275 148.465  1.00  0.00    -0.291 N 
ATOM     18  C   UNL     1     -30.626  -8.693 143.648  1.00  0.00     0.009 A 
ATOM     19  C   UNL     1     -31.124  -7.547 142.991  1.00  0.00     0.001 A 
ATOM     20  C   UNL     1     -25.547 -13.512 145.394  1.00  0.00     0.357 A 
ATOM     21  N   UNL     1     -28.334 -16.016 148.700  1.00  0.00    -0.245 NA
ATOM     22  C   UNL     1     -30.457  -7.216 141.942  1.00  0.00     0.000 A 
ATOM     23  N   UNL     1     -27.179 -12.063 143.952  1.00  0.00    -0.213 NA
ATOM     24  N   UNL     1     -24.656 -16.464 147.234  1.00  0.00    -0.280 N 
ATOM     25  C   UNL     1     -25.178 -17.409 147.994  1.00  0.00     0.328 C 
ATOM     26  C   UNL     1     -23.362 -16.796 146.756  1.00  0.00     0.157 C 
ATOM     27  O   UNL     1     -24.637 -18.425 148.340  1.00  0.00    -0.248 OA
ATOM     28  C   UNL     1     -28.673 -10.371 141.007  1.00  0.00     0.151 C 
ATOM     29  N   UNL     1     -27.610 -11.048 141.868  1.00  0.00    -0.366 N 
ATOM     30  C   UNL     1     -29.721  -8.153 141.171  1.00  0.00     0.006 A 
ATOM     31  O   UNL     1     -24.855 -12.677 144.574  1.00  0.00    -0.245 OA
ATOM     32  H   UNL     1     112.525 -44.957 115.458  1.00  0.00     0.173 HD
ATOM     33  H   UNL     1     112.525 -44.957 115.458  1.00  0.00     0.162 HD
ENDROOT
TORSDOF 0
ENDMDL
MODEL 6
REMARK VINA RESULT:     -10.8      4.467      7.405
REMARK SMILES CN1C(=O)NC2=NCN3C=C4CC5=C(N=C4n4c3c2c1nc4=O)NCc1ccccc15
REMARK SMILES IDX 10 1 11 2 12 3 16 4 13 5 9 6 8 7 18 8 14 9 17 10 19 11 20 12
REMARK SMILES IDX 31 13 21 14 6 15 26 16 5 17 30 18 29 19 22 20 7 21 28 22
REMARK SMILES IDX 15 23 2 24 3 25 1 26 4 27 25 28 24 29 27 30 23 31
REMARK H PARENT 5 32 24 33
REMARK Flexibility Score: inf
ROOT
ATOM      1  C   UNL     1     -26.427 -13.620 142.642  1.00  0.00     0.097 C 
ATOM      2  C   UNL     1     -26.362 -13.768 143.856  1.00  0.00     0.017 C 
ATOM      3  C   UNL     1     -25.613 -14.738 144.520  1.00  0.00     0.081 C 
ATOM      4  C   UNL     1     -27.123 -12.954 144.863  1.00  0.00     0.150 C 
ATOM      5  C   UNL     1     -25.942 -15.435 145.657  1.00  0.00     0.007 C 
ATOM      6  N   UNL     1     -27.274 -12.556 142.067  1.00  0.00    -0.313 N 
ATOM      7  C   UNL     1     -27.310 -12.177 140.828  1.00  0.00     0.269 C 
ATOM      8  C   UNL     1     -27.976 -11.935 143.044  1.00  0.00     0.139 A 
ATOM      9  C   UNL     1     -27.028 -14.773 146.382  1.00  0.00     0.132 C 
ATOM     10  N   UNL     1     -27.912 -11.989 144.395  1.00  0.00    -0.228 N 
ATOM     11  C   UNL     1     -28.796 -10.806 142.737  1.00  0.00     0.102 A 
ATOM     12  C   UNL     1     -29.394 -10.024 143.680  1.00  0.00     0.157 A 
ATOM     13  C   UNL     1     -25.205 -16.502 146.228  1.00  0.00    -0.013 A 
ATOM     14  N   UNL     1     -29.208 -10.222 145.012  1.00  0.00    -0.174 NA
ATOM     15  C   UNL     1     -29.142 -10.365 141.310  1.00  0.00     0.145 C 
ATOM     16  C   UNL     1     -25.825 -17.050 147.426  1.00  0.00    -0.021 A 
ATOM     17  N   UNL     1     -29.990  -9.480 141.018  1.00  0.00    -0.291 N 
ATOM     18  C   UNL     1     -23.998 -16.870 145.888  1.00  0.00     0.009 A 
ATOM     19  C   UNL     1     -23.218 -17.821 146.583  1.00  0.00     0.001 A 
ATOM     20  C   UNL     1     -28.444 -11.211 145.382  1.00  0.00     0.357 A 
ATOM     21  N   UNL     1     -28.375 -10.952 140.391  1.00  0.00    -0.245 NA
ATOM     22  C   UNL     1     -23.585 -18.007 147.801  1.00  0.00     0.000 A 
ATOM     23  N   UNL     1     -27.516 -13.565 146.044  1.00  0.00    -0.213 NA
ATOM     24  N   UNL     1     -30.295  -8.972 143.269  1.00  0.00    -0.280 N 
ATOM     25  C   UNL     1     -30.620  -8.771 142.006  1.00  0.00     0.328 C 
ATOM     26  C   UNL     1     -31.100  -8.228 144.169  1.00  0.00     0.157 C 
ATOM     27  O   UNL     1     -31.447  -7.999 141.597  1.00  0.00    -0.248 OA
ATOM     28  C   UNL     1     -27.122 -16.783 147.848  1.00  0.00     0.151 C 
ATOM     29  N   UNL     1     -27.536 -15.334 147.601  1.00  0.00    -0.366 N 
ATOM     30  C   UNL     1     -24.915 -17.792 148.245  1.00  0.00     0.006 A 
ATOM     31  O   UNL     1     -28.280 -11.303 146.728  1.00  0.00    -0.245 OA
ATOM     32  H   UNL     1    -101.091  80.752 230.318  1.00  0.00     0.173 HD
ATOM     33  H   UNL     1    -101.091  80.752 230.318  1.00  0.00     0.162 HD
ENDROOT
TORSDOF 0
ENDMDL
MODEL 7
REMARK VINA RESULT:     -10.4      4.778      7.128
REMARK SMILES CN1C(=O)NC2=NCN3C=C4CC5=C(N=C4n4c3c2c1nc4=O)NCc1ccccc15
REMARK SMILES IDX 10 1 11 2 12 3 16 4 13 5 9 6 8 7 18 8 14 9 17 10 19 11 20 12
REMARK SMILES IDX 31 13 21 14 6 15 26 16 5 17 30 18 29 19 22 20 7 21 28 22
REMARK SMILES IDX 15 23 2 24 3 25 1 26 4 27 25 28 24 29 27 30 23 31
REMARK H PARENT 5 32 24 33
REMARK Flexibility Score: inf
ROOT
ATOM      1  C   UNL     1     -29.990 -10.375 145.213  1.00  0.00     0.097 C 
ATOM      2  C   UNL     1     -29.414 -11.437 145.013  1.00  0.00     0.017 C 
ATOM      3  C   UNL     1     -29.303 -12.487 145.923  1.00  0.00     0.081 C 
ATOM      4  C   UNL     1     -28.673 -11.791 143.756  1.00  0.00     0.150 C 
ATOM      5  C   UNL     1     -28.232 -13.322 146.130  1.00  0.00     0.007 C 
ATOM      6  N   UNL     1     -30.020  -9.337 144.163  1.00  0.00    -0.313 N 
ATOM      7  C   UNL     1     -30.723  -8.248 144.167  1.00  0.00     0.269 C 
ATOM      8  C   UNL     1     -29.262  -9.715 143.107  1.00  0.00     0.139 A 
ATOM      9  C   UNL     1     -27.306 -13.278 144.997  1.00  0.00     0.132 C 
ATOM     10  N   UNL     1     -28.660 -10.883 142.781  1.00  0.00    -0.228 N 
ATOM     11  C   UNL     1     -29.215  -8.910 141.927  1.00  0.00     0.102 A 
ATOM     12  C   UNL     1     -28.619  -9.301 140.765  1.00  0.00     0.157 A 
ATOM     13  C   UNL     1     -28.116 -14.297 147.152  1.00  0.00    -0.013 A 
ATOM     14  N   UNL     1     -28.064 -10.533 140.613  1.00  0.00    -0.174 NA
ATOM     15  C   UNL     1     -29.787  -7.490 141.840  1.00  0.00     0.145 C 
ATOM     16  C   UNL     1     -26.847 -15.011 147.120  1.00  0.00    -0.021 A 
ATOM     17  N   UNL     1     -29.612  -6.705 140.869  1.00  0.00    -0.291 N 
ATOM     18  C   UNL     1     -29.076 -14.702 147.941  1.00  0.00     0.009 A 
ATOM     19  C   UNL     1     -28.983 -15.792 148.833  1.00  0.00     0.001 A 
ATOM     20  C   UNL     1     -28.094 -11.347 141.629  1.00  0.00     0.357 A 
ATOM     21  N   UNL     1     -30.582  -7.193 142.866  1.00  0.00    -0.245 NA
ATOM     22  C   UNL     1     -28.050 -16.628 148.541  1.00  0.00     0.000 A 
ATOM     23  N   UNL     1     -27.567 -12.620 143.853  1.00  0.00    -0.213 NA
ATOM     24  N   UNL     1     -28.527  -8.373 139.662  1.00  0.00    -0.280 N 
ATOM     25  C   UNL     1     -28.941  -7.123 139.751  1.00  0.00     0.328 C 
ATOM     26  C   UNL     1     -27.772  -8.619 138.487  1.00  0.00     0.157 C 
ATOM     27  O   UNL     1     -28.792  -6.263 138.925  1.00  0.00    -0.248 OA
ATOM     28  C   UNL     1     -25.738 -14.636 146.373  1.00  0.00     0.151 C 
ATOM     29  N   UNL     1     -26.111 -14.072 145.004  1.00  0.00    -0.366 N 
ATOM     30  C   UNL     1     -26.883 -16.258 147.824  1.00  0.00     0.006 A 
ATOM     31  O   UNL     1     -27.558 -12.569 141.370  1.00  0.00    -0.245 OA
ATOM     32  H   UNL     1      31.653 -34.419  11.833  1.00  0.00     0.173 HD
ATOM     33  H   UNL     1      31.653 -34.419  11.833  1.00  0.00     0.162 HD
ENDROOT
TORSDOF 0
ENDMDL
MODEL 8
REMARK VINA RESULT:     -10.3      3.371      7.393
REMARK SMILES CN1C(=O)NC2=NCN3C=C4CC5=C(N=C4n4c3c2c1nc4=O)NCc1ccccc15
REMARK SMILES IDX 10 1 11 2 12 3 16 4 13 5 9 6 8 7 18 8 14 9 17 10 19 11 20 12
REMARK SMILES IDX 31 13 21 14 6 15 26 16 5 17 30 18 29 19 22 20 7 21 28 22
REMARK SMILES IDX 15 23 2 24 3 25 1 26 4 27 25 28 24 29 27 30 23 31
REMARK H PARENT 5 32 24 33
REMARK Flexibility Score: inf
ROOT
ATOM      1  C   UNL     1     -25.484 -14.374 145.325  1.00  0.00     0.097 C 
ATOM      2  C   UNL     1     -26.603 -13.914 145.133  1.00  0.00     0.017 C 
ATOM      3  C   UNL     1     -26.953 -13.015 144.128  1.00  0.00     0.081 C 
ATOM      4  C   UNL     1     -27.807 -14.200 145.984  1.00  0.00     0.150 C 
ATOM      5  C   UNL     1     -27.842 -11.970 144.194  1.00  0.00     0.007 C 
ATOM      6  N   UNL     1     -25.245 -15.310 146.441  1.00  0.00    -0.313 N 
ATOM      7  C   UNL     1     -24.169 -15.998 146.661  1.00  0.00     0.269 C 
ATOM      8  C   UNL     1     -26.364 -15.441 147.192  1.00  0.00     0.139 A 
ATOM      9  C   UNL     1     -28.734 -12.114 145.346  1.00  0.00     0.132 C 
ATOM     10  N   UNL     1     -27.642 -15.030 147.013  1.00  0.00    -0.228 N 
ATOM     11  C   UNL     1     -26.401 -16.370 148.276  1.00  0.00     0.102 A 
ATOM     12  C   UNL     1     -27.534 -16.684 148.967  1.00  0.00     0.157 A 
ATOM     13  C   UNL     1     -28.076 -11.005 143.184  1.00  0.00    -0.013 A 
ATOM     14  N   UNL     1     -28.751 -16.175 148.638  1.00  0.00    -0.174 NA
ATOM     15  C   UNL     1     -25.165 -17.090 148.825  1.00  0.00     0.145 C 
ATOM     16  C   UNL     1     -29.069 -10.008 143.563  1.00  0.00    -0.021 A 
ATOM     17  N   UNL     1     -25.146 -17.783 149.878  1.00  0.00    -0.291 N 
ATOM     18  C   UNL     1     -27.638 -11.056 141.954  1.00  0.00     0.009 A 
ATOM     19  C   UNL     1     -28.023 -10.175 140.920  1.00  0.00     0.001 A 
ATOM     20  C   UNL     1     -28.815 -15.345 147.636  1.00  0.00     0.357 A 
ATOM     21  N   UNL     1     -24.111 -16.992 148.016  1.00  0.00    -0.245 NA
ATOM     22  C   UNL     1     -29.137  -9.572 141.138  1.00  0.00     0.000 A 
ATOM     23  N   UNL     1     -28.762 -13.207 146.130  1.00  0.00    -0.213 NA
ATOM     24  N   UNL     1     -27.449 -17.552 150.120  1.00  0.00    -0.280 N 
ATOM     25  C   UNL     1     -26.301 -18.009 150.580  1.00  0.00     0.328 C 
ATOM     26  C   UNL     1     -28.531 -17.791 151.006  1.00  0.00     0.157 C 
ATOM     27  O   UNL     1     -26.138 -18.634 151.594  1.00  0.00    -0.248 OA
ATOM     28  C   UNL     1     -29.558  -9.817 144.849  1.00  0.00     0.151 C 
ATOM     29  N   UNL     1     -29.742 -11.127 145.612  1.00  0.00    -0.366 N 
ATOM     30  C   UNL     1     -29.633  -9.318 142.442  1.00  0.00     0.006 A 
ATOM     31  O   UNL     1     -30.076 -14.925 147.350  1.00  0.00    -0.245 OA
ATOM     32  H   UNL     1    -137.135 -58.992 233.138  1.00  0.00     0.173 HD
ATOM     33  H   UNL     1    -137.135 -58.992 233.138  1.00  0.00     0.162 HD
ENDROOT
TORSDOF 0
ENDMDL
MODEL 9
REMARK VINA RESULT:     -10.2      3.960      6.667
REMARK SMILES CN1C(=O)NC2=NCN3C=C4CC5=C(N=C4n4c3c2c1nc4=O)NCc1ccccc15
REMARK SMILES IDX 10 1 11 2 12 3 16 4 13 5 9 6 8 7 18 8 14 9 17 10 19 11 20 12
REMARK SMILES IDX 31 13 21 14 6 15 26 16 5 17 30 18 29 19 22 20 7 21 28 22
REMARK SMILES IDX 15 23 2 24 3 25 1 26 4 27 25 28 24 29 27 30 23 31
REMARK H PARENT 5 32 24 33
REMARK Flexibility Score: inf
ROOT
ATOM      1  C   UNL     1     -26.641 -13.602 143.659  1.00  0.00     0.097 C 
ATOM      2  C   UNL     1     -26.857 -13.673 144.862  1.00  0.00     0.017 C 
ATOM      3  C   UNL     1     -26.295 -14.601 145.737  1.00  0.00     0.081 C 
ATOM      4  C   UNL     1     -27.813 -12.796 145.618  1.00  0.00     0.150 C 
ATOM      5  C   UNL     1     -26.886 -15.224 146.810  1.00  0.00     0.007 C 
ATOM      6  N   UNL     1     -27.318 -12.575 142.842  1.00  0.00    -0.313 N 
ATOM      7  C   UNL     1     -27.064 -12.274 141.607  1.00  0.00     0.269 C 
ATOM      8  C   UNL     1     -28.213 -11.892 143.593  1.00  0.00     0.139 A 
ATOM      9  C   UNL     1     -28.096 -14.515 147.226  1.00  0.00     0.132 C 
ATOM     10  N   UNL     1     -28.460 -11.860 144.924  1.00  0.00    -0.228 N 
ATOM     11  C   UNL     1     -28.923 -10.782 143.039  1.00  0.00     0.102 A 
ATOM     12  C   UNL     1     -29.707  -9.941 143.771  1.00  0.00     0.157 A 
ATOM     13  C   UNL     1     -26.315 -16.254 147.597  1.00  0.00    -0.013 A 
ATOM     14  N   UNL     1     -29.833 -10.056 145.120  1.00  0.00    -0.174 NA
ATOM     15  C   UNL     1     -28.927 -10.432 141.546  1.00  0.00     0.145 C 
ATOM     16  C   UNL     1     -27.201 -16.725 148.653  1.00  0.00    -0.021 A 
ATOM     17  N   UNL     1     -29.672  -9.565 141.015  1.00  0.00    -0.291 N 
ATOM     18  C   UNL     1     -25.069 -16.646 147.566  1.00  0.00     0.009 A 
ATOM     19  C   UNL     1     -24.483 -17.553 148.476  1.00  0.00     0.001 A 
ATOM     20  C   UNL     1     -29.189 -11.020 145.714  1.00  0.00     0.357 A 
ATOM     21  N   UNL     1     -27.982 -11.077 140.865  1.00  0.00    -0.245 NA
ATOM     22  C   UNL     1     -25.121 -17.661 149.588  1.00  0.00     0.000 A 
ATOM     23  N   UNL     1     -28.475 -13.330 146.712  1.00  0.00    -0.213 NA
ATOM     24  N   UNL     1     -30.473  -8.915 143.102  1.00  0.00    -0.280 N 
ATOM     25  C   UNL     1     -30.499  -8.794 141.788  1.00  0.00     0.328 C 
ATOM     26  C   UNL     1     -31.450  -8.115 143.747  1.00  0.00     0.157 C 
ATOM     27  O   UNL     1     -31.198  -8.048 141.156  1.00  0.00    -0.248 OA
ATOM     28  C   UNL     1     -28.555 -16.429 148.751  1.00  0.00     0.151 C 
ATOM     29  N   UNL     1     -28.879 -14.998 148.328  1.00  0.00    -0.366 N 
ATOM     30  C   UNL     1     -26.513 -17.415 149.703  1.00  0.00     0.006 A 
ATOM     31  O   UNL     1     -29.337 -11.028 147.066  1.00  0.00    -0.245 OA
ATOM     32  H   UNL     1    -117.750  86.266 206.057  1.00  0.00     0.173 HD
ATOM     33  H   UNL     1    -117.750  86.266 206.057  1.00  0.00     0.162 HD
ENDROOT
TORSDOF 0
ENDMDL
MODEL 10
REMARK VINA RESULT:      -8.4      2.707      4.253
REMARK SMILES CN1C(=O)NC2=NCN3C=C4CC5=C(N=C4n4c3c2c1nc4=O)NCc1ccccc15
REMARK SMILES IDX 10 1 11 2 12 3 16 4 13 5 9 6 8 7 18 8 14 9 17 10 19 11 20 12
REMARK SMILES IDX 31 13 21 14 6 15 26 16 5 17 30 18 29 19 22 20 7 21 28 22
REMARK SMILES IDX 15 23 2 24 3 25 1 26 4 27 25 28 24 29 27 30 23 31
REMARK H PARENT 5 32 24 33
REMARK Flexibility Score: inf
ROOT
ATOM      1  C   UNL     1     -27.893 -15.382 146.747  1.00  0.00     0.097 C 
ATOM      2  C   UNL     1     -28.603 -14.986 147.663  1.00  0.00     0.017 C 
ATOM      3  C   UNL     1     -28.899 -15.692 148.827  1.00  0.00     0.081 C 
ATOM      4  C   UNL     1     -29.332 -13.673 147.681  1.00  0.00     0.150 C 
ATOM      5  C   UNL     1     -30.084 -15.728 149.521  1.00  0.00     0.007 C 
ATOM      6  N   UNL     1     -27.673 -14.534 145.557  1.00  0.00    -0.313 N 
ATOM      7  C   UNL     1     -26.825 -14.745 144.600  1.00  0.00     0.269 C 
ATOM      8  C   UNL     1     -28.431 -13.415 145.631  1.00  0.00     0.139 A 
ATOM      9  C   UNL     1     -30.945 -14.606 149.147  1.00  0.00     0.132 C 
ATOM     10  N   UNL     1     -29.177 -12.876 146.625  1.00  0.00    -0.228 N 
ATOM     11  C   UNL     1     -28.315 -12.398 144.635  1.00  0.00     0.102 A 
ATOM     12  C   UNL     1     -28.910 -11.174 144.727  1.00  0.00     0.157 A 
ATOM     13  C   UNL     1     -30.378 -16.558 150.632  1.00  0.00    -0.013 A 
ATOM     14  N   UNL     1     -29.625 -10.795 145.819  1.00  0.00    -0.174 NA
ATOM     15  C   UNL     1     -27.547 -12.575 143.320  1.00  0.00     0.145 C 
ATOM     16  C   UNL     1     -31.732 -16.377 151.138  1.00  0.00    -0.021 A 
ATOM     17  N   UNL     1     -27.568 -11.757 142.361  1.00  0.00    -0.291 N 
ATOM     18  C   UNL     1     -29.519 -17.278 151.304  1.00  0.00     0.009 A 
ATOM     19  C   UNL     1     -29.802 -17.960 152.507  1.00  0.00     0.001 A 
ATOM     20  C   UNL     1     -29.752 -11.650 146.793  1.00  0.00     0.357 A 
ATOM     21  N   UNL     1     -26.762 -13.651 143.325  1.00  0.00    -0.245 NA
ATOM     22  C   UNL     1     -30.829 -17.507 153.134  1.00  0.00     0.000 A 
ATOM     23  N   UNL     1     -30.546 -13.602 148.344  1.00  0.00    -0.213 NA
ATOM     24  N   UNL     1     -28.824 -10.254 143.617  1.00  0.00    -0.280 N 
ATOM     25  C   UNL     1     -28.243 -10.571 142.476  1.00  0.00     0.328 C 
ATOM     26  C   UNL     1     -29.555  -9.040 143.543  1.00  0.00     0.157 C 
ATOM     27  O   UNL     1     -28.235  -9.909 141.472  1.00  0.00    -0.248 OA
ATOM     28  C   UNL     1     -32.746 -15.691 150.481  1.00  0.00     0.151 C 
ATOM     29  N   UNL     1     -32.239 -14.451 149.747  1.00  0.00    -0.366 N 
ATOM     30  C   UNL     1     -31.901 -16.848 152.479  1.00  0.00     0.006 A 
ATOM     31  O   UNL     1     -30.443 -11.168 147.861  1.00  0.00    -0.245 OA
ATOM     32  H   UNL     1     -86.582 121.171 137.966  1.00  0.00     0.173 HD
ATOM     33  H   UNL     1     -86.582 121.171 137.966  1.00  0.00     0.162 HD
ENDROOT
TORSDOF 0
ENDMDL
