MODEL 1
REMARK VINA RESULT:     -13.0      0.000      0.000
REMARK SMILES Cn1c(=O)n2c3c(cn4ccc5cc(=O)cc1c5c42)Cc1c(ncc2ccccc12)N=3
REMARK SMILES IDX 8 1 7 2 20 3 6 4 21 5 9 6 10 7 19 8 22 9 5 10 18 11 17 12
REMARK SMILES IDX 3 13 12 14 2 15 1 16 11 17 30 18 23 19 29 20 24 21 31 22
REMARK SMILES IDX 28 23 13 24 27 25 14 26 4 27 25 28 16 29 26 30 15 31
REMARK H PARENT
REMARK Flexibility Score: inf
ROOT
ATOM      1  C   UNL     1     -29.511 -10.262 144.486  1.00  0.00     0.100 A 
ATOM      2  C   UNL     1     -29.034 -11.390 144.469  1.00  0.00     0.017 A 
ATOM      3  C   UNL     1     -29.017 -12.284 145.537  1.00  0.00     0.081 C 
ATOM      4  C   UNL     1     -28.327 -12.006 143.296  1.00  0.00     0.150 A 
ATOM      5  C   UNL     1     -28.026 -13.167 145.891  1.00  0.00     0.009 A 
ATOM      6  N   UNL     1     -29.447  -9.409 143.283  1.00  0.00    -0.309 N 
ATOM      7  C   UNL     1     -30.050  -8.275 143.102  1.00  0.00     0.093 A 
ATOM      8  C   UNL     1     -28.726 -10.018 142.313  1.00  0.00     0.137 A 
ATOM      9  C   UNL     1     -27.099 -13.388 144.780  1.00  0.00     0.158 A 
ATOM     10  N   UNL     1     -28.231 -11.272 142.188  1.00  0.00    -0.229 N 
ATOM     11  C   UNL     1     -28.606  -9.421 141.020  1.00  0.00     0.048 A 
ATOM     12  C   UNL     1     -28.047 -10.046 139.945  1.00  0.00     0.061 A 
ATOM     13  C   UNL     1     -27.601 -11.843 141.124  1.00  0.00     0.335 A 
ATOM     14  C   UNL     1     -29.141  -7.947 140.720  1.00  0.00    -0.007 A 
ATOM     15  N   UNL     1     -27.659 -11.210 140.021  1.00  0.00    -0.296 N 
ATOM     16  C   UNL     1     -27.238 -11.999 138.829  1.00  0.00     0.155 C 
ATOM     17  C   UNL     1     -29.852  -7.559 141.913  1.00  0.00     0.027 A 
ATOM     18  C   UNL     1     -28.097 -14.225 146.869  1.00  0.00    -0.010 A 
ATOM     19  N   UNL     1     -26.053 -14.351 144.948  1.00  0.00    -0.236 NA
ATOM     20  C   UNL     1     -29.128 -14.204 147.831  1.00  0.00     0.009 A 
ATOM     21  C   UNL     1     -26.001 -15.032 146.088  1.00  0.00     0.122 A 
ATOM     22  N   UNL     1     -27.409 -13.083 143.504  1.00  0.00    -0.210 NA
ATOM     23  C   UNL     1     -29.175 -15.338 148.627  1.00  0.00     0.001 A 
ATOM     24  C   UNL     1     -28.837  -7.309 139.678  1.00  0.00     0.061 A 
ATOM     25  C   UNL     1     -28.240 -16.297 148.670  1.00  0.00     0.001 A 
ATOM     26  C   UNL     1     -28.165  -8.022 138.566  1.00  0.00     0.181 A 
ATOM     27  O   UNL     1     -27.172 -13.144 141.085  1.00  0.00    -0.247 OA
ATOM     28  C   UNL     1     -27.016 -15.084 146.943  1.00  0.00     0.000 A 
ATOM     29  C   UNL     1     -27.789  -9.329 138.681  1.00  0.00     0.079 A 
ATOM     30  C   UNL     1     -27.140 -16.171 147.797  1.00  0.00     0.010 A 
ATOM     31  O   UNL     1     -27.907  -7.407 137.559  1.00  0.00    -0.290 OA
ENDROOT
TORSDOF 0
ENDMDL
MODEL 2
REMARK VINA RESULT:     -12.5      1.539      2.346
REMARK SMILES Cn1c(=O)n2c3c(cn4ccc5cc(=O)cc1c5c42)Cc1c(ncc2ccccc12)N=3
REMARK SMILES IDX 8 1 7 2 20 3 6 4 21 5 9 6 10 7 19 8 22 9 5 10 18 11 17 12
REMARK SMILES IDX 3 13 12 14 2 15 1 16 11 17 30 18 23 19 29 20 24 21 31 22
REMARK SMILES IDX 28 23 13 24 27 25 14 26 4 27 25 28 16 29 26 30 15 31
REMARK H PARENT
REMARK Flexibility Score: inf
ROOT
ATOM      1  C   UNL     1     -28.244 -11.884 145.571  1.00  0.00     0.100 A 
ATOM      2  C   UNL     1     -27.603 -12.846 145.166  1.00  0.00     0.017 A 
ATOM      3  C   UNL     1     -27.083 -13.870 145.957  1.00  0.00     0.081 C 
ATOM      4  C   UNL     1     -27.214 -13.079 143.735  1.00  0.00     0.150 A 
ATOM      5  C   UNL     1     -25.889 -14.533 145.810  1.00  0.00     0.009 A 
ATOM      6  N   UNL     1     -28.725 -10.860 144.623  1.00  0.00    -0.309 N 
ATOM      7  C   UNL     1     -29.547  -9.890 144.879  1.00  0.00     0.093 A 
ATOM      8  C   UNL     1     -28.259 -11.115 143.379  1.00  0.00     0.137 A 
ATOM      9  C   UNL     1     -25.346 -14.345 144.464  1.00  0.00     0.158 A 
ATOM     10  N   UNL     1     -27.613 -12.177 142.840  1.00  0.00    -0.229 N 
ATOM     11  C   UNL     1     -28.671 -10.308 142.274  1.00  0.00     0.048 A 
ATOM     12  C   UNL     1     -28.386 -10.601 140.973  1.00  0.00     0.061 A 
ATOM     13  C   UNL     1     -27.269 -12.403 141.542  1.00  0.00     0.335 A 
ATOM     14  C   UNL     1     -29.529  -8.978 142.476  1.00  0.00    -0.007 A 
ATOM     15  N   UNL     1     -27.791 -11.634 140.672  1.00  0.00    -0.296 N 
ATOM     16  C   UNL     1     -27.643 -12.098 139.264  1.00  0.00     0.155 C 
ATOM     17  C   UNL     1     -29.875  -8.967 143.876  1.00  0.00     0.027 A 
ATOM     18  C   UNL     1     -25.450 -15.719 146.503  1.00  0.00    -0.010 A 
ATOM     19  N   UNL     1     -24.147 -15.042 144.110  1.00  0.00    -0.236 NA
ATOM     20  C   UNL     1     -26.102 -16.100 147.695  1.00  0.00     0.009 A 
ATOM     21  C   UNL     1     -23.609 -15.864 145.005  1.00  0.00     0.122 A 
ATOM     22  N   UNL     1     -26.100 -13.924 143.429  1.00  0.00    -0.210 NA
ATOM     23  C   UNL     1     -25.686 -17.325 148.194  1.00  0.00     0.001 A 
ATOM     24  C   UNL     1     -29.697  -8.127 141.563  1.00  0.00     0.061 A 
ATOM     25  C   UNL     1     -24.630 -18.025 147.756  1.00  0.00     0.001 A 
ATOM     26  C   UNL     1     -29.303  -8.471 140.176  1.00  0.00     0.181 A 
ATOM     27  O   UNL     1     -26.649 -13.539 141.092  1.00  0.00    -0.247 OA
ATOM     28  C   UNL     1     -24.268 -16.294 146.076  1.00  0.00     0.000 A 
ATOM     29  C   UNL     1     -28.682  -9.651 139.883  1.00  0.00     0.079 A 
ATOM     30  C   UNL     1     -23.912 -17.501 146.662  1.00  0.00     0.010 A 
ATOM     31  O   UNL     1     -29.498  -7.660 139.303  1.00  0.00    -0.290 OA
ENDROOT
TORSDOF 0
ENDMDL
MODEL 3
REMARK VINA RESULT:     -11.9      6.546      9.601
REMARK SMILES Cn1c(=O)n2c3c(cn4ccc5cc(=O)cc1c5c42)Cc1c(ncc2ccccc12)N=3
REMARK SMILES IDX 8 1 7 2 20 3 6 4 21 5 9 6 10 7 19 8 22 9 5 10 18 11 17 12
REMARK SMILES IDX 3 13 12 14 2 15 1 16 11 17 30 18 23 19 29 20 24 21 31 22
REMARK SMILES IDX 28 23 13 24 27 25 14 26 4 27 25 28 16 29 26 30 15 31
REMARK H PARENT
REMARK Flexibility Score: inf
ROOT
ATOM      1  C   UNL     1     -30.321 -12.707 148.226  1.00  0.00     0.100 A 
ATOM      2  C   UNL     1     -29.532 -13.643 148.192  1.00  0.00     0.017 A 
ATOM      3  C   UNL     1     -28.401 -13.725 147.381  1.00  0.00     0.081 C 
ATOM      4  C   UNL     1     -29.663 -14.909 148.989  1.00  0.00     0.150 A 
ATOM      5  C   UNL     1     -27.887 -14.831 146.749  1.00  0.00     0.009 A 
ATOM      6  N   UNL     1     -31.492 -12.756 149.124  1.00  0.00    -0.309 N 
ATOM      7  C   UNL     1     -32.308 -11.784 149.389  1.00  0.00     0.093 A 
ATOM      8  C   UNL     1     -31.566 -13.961 149.736  1.00  0.00     0.137 A 
ATOM      9  C   UNL     1     -28.420 -16.063 147.333  1.00  0.00     0.158 A 
ATOM     10  N   UNL     1     -30.711 -15.008 149.806  1.00  0.00    -0.229 N 
ATOM     11  C   UNL     1     -32.567 -14.208 150.725  1.00  0.00     0.048 A 
ATOM     12  C   UNL     1     -32.603 -15.326 151.505  1.00  0.00     0.061 A 
ATOM     13  C   UNL     1     -30.814 -16.153 150.536  1.00  0.00     0.335 A 
ATOM     14  C   UNL     1     -33.743 -13.167 151.012  1.00  0.00    -0.007 A 
ATOM     15  N   UNL     1     -31.717 -16.175 151.434  1.00  0.00    -0.296 N 
ATOM     16  C   UNL     1     -31.599 -17.300 152.405  1.00  0.00     0.155 C 
ATOM     17  C   UNL     1     -33.406 -12.001 150.234  1.00  0.00     0.027 A 
ATOM     18  C   UNL     1     -26.613 -14.953 146.083  1.00  0.00    -0.010 A 
ATOM     19  N   UNL     1     -27.921 -17.316 146.851  1.00  0.00    -0.236 NA
ATOM     20  C   UNL     1     -25.919 -13.783 145.708  1.00  0.00     0.009 A 
ATOM     21  C   UNL     1     -26.963 -17.300 145.930  1.00  0.00     0.122 A 
ATOM     22  N   UNL     1     -29.003 -16.099 148.547  1.00  0.00    -0.210 NA
ATOM     23  C   UNL     1     -24.651 -14.022 145.202  1.00  0.00     0.001 A 
ATOM     24  C   UNL     1     -34.762 -13.459 151.691  1.00  0.00     0.061 A 
ATOM     25  C   UNL     1     -24.156 -15.225 144.880  1.00  0.00     0.001 A 
ATOM     26  C   UNL     1     -34.777 -14.722 152.465  1.00  0.00     0.181 A 
ATOM     27  O   UNL     1     -29.865 -17.140 150.569  1.00  0.00    -0.247 OA
ATOM     28  C   UNL     1     -26.249 -16.215 145.653  1.00  0.00     0.000 A 
ATOM     29  C   UNL     1     -33.749 -15.617 152.388  1.00  0.00     0.079 A 
ATOM     30  C   UNL     1     -24.973 -16.349 145.123  1.00  0.00     0.010 A 
ATOM     31  O   UNL     1     -35.747 -14.976 153.137  1.00  0.00    -0.290 OA
ENDROOT
TORSDOF 0
ENDMDL
MODEL 4
REMARK VINA RESULT:     -11.6      3.144      9.065
REMARK SMILES Cn1c(=O)n2c3c(cn4ccc5cc(=O)cc1c5c42)Cc1c(ncc2ccccc12)N=3
REMARK SMILES IDX 8 1 7 2 20 3 6 4 21 5 9 6 10 7 19 8 22 9 5 10 18 11 17 12
REMARK SMILES IDX 3 13 12 14 2 15 1 16 11 17 30 18 23 19 29 20 24 21 31 22
REMARK SMILES IDX 28 23 13 24 27 25 14 26 4 27 25 28 16 29 26 30 15 31
REMARK H PARENT
REMARK Flexibility Score: inf
ROOT
ATOM      1  C   UNL     1     -25.611 -13.915 144.758  1.00  0.00     0.100 A 
ATOM      2  C   UNL     1     -26.723 -13.404 144.700  1.00  0.00     0.017 A 
ATOM      3  C   UNL     1     -27.136 -12.457 143.765  1.00  0.00     0.081 C 
ATOM      4  C   UNL     1     -27.844 -13.671 145.663  1.00  0.00     0.150 A 
ATOM      5  C   UNL     1     -27.968 -11.380 143.956  1.00  0.00     0.009 A 
ATOM      6  N   UNL     1     -25.300 -14.899 145.814  1.00  0.00    -0.309 N 
ATOM      7  C   UNL     1     -24.237 -15.637 145.899  1.00  0.00     0.093 A 
ATOM      8  C   UNL     1     -26.339 -15.010 146.674  1.00  0.00     0.137 A 
ATOM      9  C   UNL     1     -28.741 -11.528 145.190  1.00  0.00     0.158 A 
ATOM     10  N   UNL     1     -27.609 -14.543 146.643  1.00  0.00    -0.229 N 
ATOM     11  C   UNL     1     -26.304 -15.975 147.727  1.00  0.00     0.048 A 
ATOM     12  C   UNL     1     -27.371 -16.268 148.524  1.00  0.00     0.061 A 
ATOM     13  C   UNL     1     -28.635 -14.790 147.504  1.00  0.00     0.335 A 
ATOM     14  C   UNL     1     -24.988 -16.816 148.055  1.00  0.00    -0.007 A 
ATOM     15  N   UNL     1     -28.466 -15.742 148.333  1.00  0.00    -0.296 N 
ATOM     16  C   UNL     1     -29.705 -16.182 149.036  1.00  0.00     0.155 C 
ATOM     17  C   UNL     1     -24.067 -16.497 146.993  1.00  0.00     0.027 A 
ATOM     18  C   UNL     1     -28.550 -10.528 142.950  1.00  0.00    -0.010 A 
ATOM     19  N   UNL     1     -29.725 -10.535 145.501  1.00  0.00    -0.236 NA
ATOM     20  C   UNL     1     -27.999 -10.521 141.651  1.00  0.00     0.009 A 
ATOM     21  C   UNL     1     -29.922  -9.551 144.629  1.00  0.00     0.122 A 
ATOM     22  N   UNL     1     -28.895 -12.714 145.813  1.00  0.00    -0.210 NA
ATOM     23  C   UNL     1     -28.724  -9.770 140.739  1.00  0.00     0.001 A 
ATOM     24  C   UNL     1     -24.850 -17.485 149.114  1.00  0.00     0.061 A 
ATOM     25  C   UNL     1     -29.733  -8.942 141.041  1.00  0.00     0.001 A 
ATOM     26  C   UNL     1     -26.030 -17.713 149.981  1.00  0.00     0.181 A 
ATOM     27  O   UNL     1     -29.905 -14.296 147.359  1.00  0.00    -0.247 OA
ATOM     28  C   UNL     1     -29.481  -9.598 143.377  1.00  0.00     0.000 A 
ATOM     29  C   UNL     1     -27.239 -17.142 149.706  1.00  0.00     0.079 A 
ATOM     30  C   UNL     1     -30.128  -8.865 142.392  1.00  0.00     0.010 A 
ATOM     31  O   UNL     1     -25.893 -18.382 150.977  1.00  0.00    -0.290 OA
ENDROOT
TORSDOF 0
ENDMDL
MODEL 5
REMARK VINA RESULT:     -11.6      4.710      7.242
REMARK SMILES Cn1c(=O)n2c3c(cn4ccc5cc(=O)cc1c5c42)Cc1c(ncc2ccccc12)N=3
REMARK SMILES IDX 8 1 7 2 20 3 6 4 21 5 9 6 10 7 19 8 22 9 5 10 18 11 17 12
REMARK SMILES IDX 3 13 12 14 2 15 1 16 11 17 30 18 23 19 29 20 24 21 31 22
REMARK SMILES IDX 28 23 13 24 27 25 14 26 4 27 25 28 16 29 26 30 15 31
REMARK H PARENT
REMARK Flexibility Score: inf
ROOT
ATOM      1  C   UNL     1     -30.126 -12.537 148.084  1.00  0.00     0.100 A 
ATOM      2  C   UNL     1     -30.491 -13.601 148.569  1.00  0.00     0.017 A 
ATOM      3  C   UNL     1     -31.546 -13.768 149.464  1.00  0.00     0.081 C 
ATOM      4  C   UNL     1     -29.834 -14.928 148.323  1.00  0.00     0.150 A 
ATOM      5  C   UNL     1     -31.625 -14.630 150.532  1.00  0.00     0.009 A 
ATOM      6  N   UNL     1     -28.979 -12.498 147.155  1.00  0.00    -0.309 N 
ATOM      7  C   UNL     1     -28.590 -11.487 146.443  1.00  0.00     0.093 A 
ATOM      8  C   UNL     1     -28.409 -13.722 147.061  1.00  0.00     0.137 A 
ATOM      9  C   UNL     1     -30.624 -15.691 150.424  1.00  0.00     0.158 A 
ATOM     10  N   UNL     1     -28.785 -14.946 147.501  1.00  0.00    -0.229 N 
ATOM     11  C   UNL     1     -27.336 -13.950 146.145  1.00  0.00     0.048 A 
ATOM     12  C   UNL     1     -26.825 -15.183 145.867  1.00  0.00     0.061 A 
ATOM     13  C   UNL     1     -28.204 -16.156 147.272  1.00  0.00     0.335 A 
ATOM     14  C   UNL     1     -26.642 -12.755 145.347  1.00  0.00    -0.007 A 
ATOM     15  N   UNL     1     -27.315 -16.197 146.362  1.00  0.00    -0.296 N 
ATOM     16  C   UNL     1     -26.931 -17.571 145.929  1.00  0.00     0.155 C 
ATOM     17  C   UNL     1     -27.448 -11.595 145.637  1.00  0.00     0.027 A 
ATOM     18  C   UNL     1     -32.787 -14.942 151.327  1.00  0.00    -0.010 A 
ATOM     19  N   UNL     1     -30.624 -16.730 151.410  1.00  0.00    -0.236 NA
ATOM     20  C   UNL     1     -33.901 -14.076 151.286  1.00  0.00     0.009 A 
ATOM     21  C   UNL     1     -31.563 -16.706 152.350  1.00  0.00     0.122 A 
ATOM     22  N   UNL     1     -30.004 -15.991 149.265  1.00  0.00    -0.210 NA
ATOM     23  C   UNL     1     -35.003 -14.550 151.981  1.00  0.00     0.001 A 
ATOM     24  C   UNL     1     -25.552 -12.888 144.730  1.00  0.00     0.061 A 
ATOM     25  C   UNL     1     -35.010 -15.609 152.801  1.00  0.00     0.001 A 
ATOM     26  C   UNL     1     -25.005 -14.248 144.516  1.00  0.00     0.181 A 
ATOM     27  O   UNL     1     -28.693 -17.350 147.733  1.00  0.00    -0.247 OA
ATOM     28  C   UNL     1     -32.657 -15.958 152.255  1.00  0.00     0.000 A 
ATOM     29  C   UNL     1     -25.607 -15.351 145.050  1.00  0.00     0.079 A 
ATOM     30  C   UNL     1     -33.809 -16.337 152.931  1.00  0.00     0.010 A 
ATOM     31  O   UNL     1     -23.976 -14.366 143.896  1.00  0.00    -0.290 OA
ENDROOT
TORSDOF 0
ENDMDL
MODEL 6
REMARK VINA RESULT:     -11.5      5.016      7.221
REMARK SMILES Cn1c(=O)n2c3c(cn4ccc5cc(=O)cc1c5c42)Cc1c(ncc2ccccc12)N=3
REMARK SMILES IDX 8 1 7 2 20 3 6 4 21 5 9 6 10 7 19 8 22 9 5 10 18 11 17 12
REMARK SMILES IDX 3 13 12 14 2 15 1 16 11 17 30 18 23 19 29 20 24 21 31 22
REMARK SMILES IDX 28 23 13 24 27 25 14 26 4 27 25 28 16 29 26 30 15 31
REMARK H PARENT
REMARK Flexibility Score: inf
ROOT
ATOM      1  C   UNL     1     -28.386 -11.921 146.904  1.00  0.00     0.100 A 
ATOM      2  C   UNL     1     -29.177 -12.714 147.400  1.00  0.00     0.017 A 
ATOM      3  C   UNL     1     -30.354 -12.381 148.068  1.00  0.00     0.081 C 
ATOM      4  C   UNL     1     -28.999 -14.205 147.422  1.00  0.00     0.150 A 
ATOM      5  C   UNL     1     -30.905 -12.986 149.171  1.00  0.00     0.009 A 
ATOM      6  N   UNL     1     -27.164 -12.410 146.235  1.00  0.00    -0.309 N 
ATOM      7  C   UNL     1     -26.333 -11.710 145.528  1.00  0.00     0.093 A 
ATOM      8  C   UNL     1     -27.055 -13.752 146.378  1.00  0.00     0.137 A 
ATOM      9  C   UNL     1     -30.339 -14.321 149.375  1.00  0.00     0.158 A 
ATOM     10  N   UNL     1     -27.905 -14.697 146.842  1.00  0.00    -0.229 N 
ATOM     11  C   UNL     1     -25.997 -14.463 145.731  1.00  0.00     0.048 A 
ATOM     12  C   UNL     1     -25.916 -15.823 145.683  1.00  0.00     0.061 A 
ATOM     13  C   UNL     1     -27.759 -16.051 146.854  1.00  0.00     0.335 A 
ATOM     14  C   UNL     1     -24.806 -13.705 144.986  1.00  0.00    -0.007 A 
ATOM     15  N   UNL     1     -26.805 -16.527 146.158  1.00  0.00    -0.296 N 
ATOM     16  C   UNL     1     -26.866 -18.001 145.945  1.00  0.00     0.155 C 
ATOM     17  C   UNL     1     -25.187 -12.315 144.992  1.00  0.00     0.027 A 
ATOM     18  C   UNL     1     -32.216 -12.769 149.732  1.00  0.00    -0.010 A 
ATOM     19  N   UNL     1     -30.866 -15.130 150.432  1.00  0.00    -0.236 NA
ATOM     20  C   UNL     1     -32.930 -11.604 149.379  1.00  0.00     0.009 A 
ATOM     21  C   UNL     1     -31.877 -14.649 151.149  1.00  0.00     0.122 A 
ATOM     22  N   UNL     1     -29.685 -14.988 148.404  1.00  0.00    -0.210 NA
ATOM     23  C   UNL     1     -34.226 -11.572 149.870  1.00  0.00     0.001 A 
ATOM     24  C   UNL     1     -23.748 -14.285 144.625  1.00  0.00     0.061 A 
ATOM     25  C   UNL     1     -34.740 -12.425 150.767  1.00  0.00     0.001 A 
ATOM     26  C   UNL     1     -23.688 -15.766 144.659  1.00  0.00     0.181 A 
ATOM     27  O   UNL     1     -28.706 -16.929 147.314  1.00  0.00    -0.247 OA
ATOM     28  C   UNL     1     -32.606 -13.609 150.758  1.00  0.00     0.000 A 
ATOM     29  C   UNL     1     -24.720 -16.509 145.157  1.00  0.00     0.079 A 
ATOM     30  C   UNL     1     -33.911 -13.476 151.211  1.00  0.00     0.010 A 
ATOM     31  O   UNL     1     -22.681 -16.311 144.281  1.00  0.00    -0.290 OA
ENDROOT
TORSDOF 0
ENDMDL
MODEL 7
REMARK VINA RESULT:     -11.4      2.020      8.017
REMARK SMILES Cn1c(=O)n2c3c(cn4ccc5cc(=O)cc1c5c42)Cc1c(ncc2ccccc12)N=3
REMARK SMILES IDX 8 1 7 2 20 3 6 4 21 5 9 6 10 7 19 8 22 9 5 10 18 11 17 12
REMARK SMILES IDX 3 13 12 14 2 15 1 16 11 17 30 18 23 19 29 20 24 21 31 22
REMARK SMILES IDX 28 23 13 24 27 25 14 26 4 27 25 28 16 29 26 30 15 31
REMARK H PARENT
REMARK Flexibility Score: inf
ROOT
ATOM      1  C   UNL     1     -29.671 -11.071 144.965  1.00  0.00     0.100 A 
ATOM      2  C   UNL     1     -28.913 -11.104 144.004  1.00  0.00     0.017 A 
ATOM      3  C   UNL     1     -28.931 -10.226 142.922  1.00  0.00     0.081 C 
ATOM      4  C   UNL     1     -27.842 -12.135 143.788  1.00  0.00     0.150 A 
ATOM      5  C   UNL     1     -28.693 -10.504 141.598  1.00  0.00     0.009 A 
ATOM      6  N   UNL     1     -29.551 -12.075 146.041  1.00  0.00    -0.309 N 
ATOM      7  C   UNL     1     -30.163 -12.066 147.184  1.00  0.00     0.093 A 
ATOM      8  C   UNL     1     -28.618 -13.001 145.717  1.00  0.00     0.137 A 
ATOM      9  C   UNL     1     -27.999 -11.784 141.448  1.00  0.00     0.158 A 
ATOM     10  N   UNL     1     -27.701 -13.071 144.724  1.00  0.00    -0.229 N 
ATOM     11  C   UNL     1     -28.261 -14.023 146.651  1.00  0.00     0.048 A 
ATOM     12  C   UNL     1     -27.218 -14.882 146.472  1.00  0.00     0.061 A 
ATOM     13  C   UNL     1     -26.719 -13.994 144.527  1.00  0.00     0.335 A 
ATOM     14  C   UNL     1     -29.064 -14.236 148.014  1.00  0.00    -0.007 A 
ATOM     15  N   UNL     1     -26.476 -14.782 145.497  1.00  0.00    -0.296 N 
ATOM     16  C   UNL     1     -25.209 -15.556 145.366  1.00  0.00     0.155 C 
ATOM     17  C   UNL     1     -29.976 -13.122 148.087  1.00  0.00     0.027 A 
ATOM     18  C   UNL     1     -28.514  -9.565 140.518  1.00  0.00    -0.010 A 
ATOM     19  N   UNL     1     -27.592 -12.189 140.136  1.00  0.00    -0.236 NA
ATOM     20  C   UNL     1     -28.944  -8.232 140.689  1.00  0.00     0.009 A 
ATOM     21  C   UNL     1     -27.822 -11.361 139.122  1.00  0.00     0.122 A 
ATOM     22  N   UNL     1     -27.351 -12.383 142.467  1.00  0.00    -0.210 NA
ATOM     23  C   UNL     1     -28.597  -7.393 139.641  1.00  0.00     0.001 A 
ATOM     24  C   UNL     1     -28.933 -15.263 148.730  1.00  0.00     0.061 A 
ATOM     25  C   UNL     1     -28.093  -7.787 138.464  1.00  0.00     0.001 A 
ATOM     26  C   UNL     1     -27.823 -16.203 148.447  1.00  0.00     0.181 A 
ATOM     27  O   UNL     1     -25.808 -13.950 143.504  1.00  0.00    -0.247 OA
ATOM     28  C   UNL     1     -28.132 -10.081 139.294  1.00  0.00     0.000 A 
ATOM     29  C   UNL     1     -26.995 -16.028 147.376  1.00  0.00     0.079 A 
ATOM     30  C   UNL     1     -27.844  -9.164 138.293  1.00  0.00     0.010 A 
ATOM     31  O   UNL     1     -27.688 -17.168 149.160  1.00  0.00    -0.290 OA
ENDROOT
TORSDOF 0
ENDMDL
MODEL 8
REMARK VINA RESULT:     -11.2      2.123      8.132
REMARK SMILES Cn1c(=O)n2c3c(cn4ccc5cc(=O)cc1c5c42)Cc1c(ncc2ccccc12)N=3
REMARK SMILES IDX 8 1 7 2 20 3 6 4 21 5 9 6 10 7 19 8 22 9 5 10 18 11 17 12
REMARK SMILES IDX 3 13 12 14 2 15 1 16 11 17 30 18 23 19 29 20 24 21 31 22
REMARK SMILES IDX 28 23 13 24 27 25 14 26 4 27 25 28 16 29 26 30 15 31
REMARK H PARENT
REMARK Flexibility Score: inf
ROOT
ATOM      1  C   UNL     1     -29.688 -12.068 145.957  1.00  0.00     0.100 A 
ATOM      2  C   UNL     1     -28.999 -11.641 145.039  1.00  0.00     0.017 A 
ATOM      3  C   UNL     1     -29.341 -10.596 144.182  1.00  0.00     0.081 C 
ATOM      4  C   UNL     1     -27.667 -12.201 144.631  1.00  0.00     0.150 A 
ATOM      5  C   UNL     1     -29.081 -10.480 142.838  1.00  0.00     0.009 A 
ATOM      6  N   UNL     1     -29.211 -13.196 146.782  1.00  0.00    -0.309 N 
ATOM      7  C   UNL     1     -29.746 -13.638 147.877  1.00  0.00     0.093 A 
ATOM      8  C   UNL     1     -28.047 -13.679 146.289  1.00  0.00     0.137 A 
ATOM      9  C   UNL     1     -28.023 -11.404 142.427  1.00  0.00     0.158 A 
ATOM     10  N   UNL     1     -27.197 -13.229 145.336  1.00  0.00    -0.229 N 
ATOM     11  C   UNL     1     -27.345 -14.715 146.980  1.00  0.00     0.048 A 
ATOM     12  C   UNL     1     -26.091 -15.134 146.646  1.00  0.00     0.061 A 
ATOM     13  C   UNL     1     -25.981 -13.721 144.970  1.00  0.00     0.335 A 
ATOM     14  C   UNL     1     -27.981 -15.472 148.232  1.00  0.00    -0.007 A 
ATOM     15  N   UNL     1     -25.460 -14.587 145.744  1.00  0.00    -0.296 N 
ATOM     16  C   UNL     1     -24.019 -14.867 145.484  1.00  0.00     0.155 C 
ATOM     17  C   UNL     1     -29.196 -14.753 148.525  1.00  0.00     0.027 A 
ATOM     18  C   UNL     1     -29.255  -9.316 142.005  1.00  0.00    -0.010 A 
ATOM     19  N   UNL     1     -27.563 -11.354 141.072  1.00  0.00    -0.236 NA
ATOM     20  C   UNL     1     -30.079  -8.263 142.458  1.00  0.00     0.009 A 
ATOM     21  C   UNL     1     -28.087 -10.437 140.263  1.00  0.00     0.122 A 
ATOM     22  N   UNL     1     -27.177 -11.978 143.306  1.00  0.00    -0.210 NA
ATOM     23  C   UNL     1     -30.060  -7.145 141.638  1.00  0.00     0.001 A 
ATOM     24  C   UNL     1     -27.501 -16.537 148.703  1.00  0.00     0.061 A 
ATOM     25  C   UNL     1     -29.505  -7.084 140.419  1.00  0.00     0.001 A 
ATOM     26  C   UNL     1     -26.163 -16.986 148.252  1.00  0.00     0.181 A 
ATOM     27  O   UNL     1     -25.175 -13.162 144.013  1.00  0.00    -0.247 OA
ATOM     28  C   UNL     1     -28.780  -9.395 140.709  1.00  0.00     0.000 A 
ATOM     29  C   UNL     1     -25.479 -16.321 147.276  1.00  0.00     0.079 A 
ATOM     30  C   UNL     1     -28.839  -8.234 139.950  1.00  0.00     0.010 A 
ATOM     31  O   UNL     1     -25.699 -17.992 148.733  1.00  0.00    -0.290 OA
ENDROOT
TORSDOF 0
ENDMDL
MODEL 9
REMARK VINA RESULT:     -11.1      3.047      8.715
REMARK SMILES Cn1c(=O)n2c3c(cn4ccc5cc(=O)cc1c5c42)Cc1c(ncc2ccccc12)N=3
REMARK SMILES IDX 8 1 7 2 20 3 6 4 21 5 9 6 10 7 19 8 22 9 5 10 18 11 17 12
REMARK SMILES IDX 3 13 12 14 2 15 1 16 11 17 30 18 23 19 29 20 24 21 31 22
REMARK SMILES IDX 28 23 13 24 27 25 14 26 4 27 25 28 16 29 26 30 15 31
REMARK H PARENT
REMARK Flexibility Score: inf
ROOT
ATOM      1  C   UNL     1     -26.074 -12.928 144.264  1.00  0.00     0.100 A 
ATOM      2  C   UNL     1     -27.214 -12.481 144.260  1.00  0.00     0.017 A 
ATOM      3  C   UNL     1     -27.704 -11.508 143.390  1.00  0.00     0.081 C 
ATOM      4  C   UNL     1     -28.293 -12.867 145.230  1.00  0.00     0.150 A 
ATOM      5  C   UNL     1     -28.590 -10.494 143.662  1.00  0.00     0.009 A 
ATOM      6  N   UNL     1     -25.680 -13.950 145.255  1.00  0.00    -0.309 N 
ATOM      7  C   UNL     1     -24.576 -14.629 145.273  1.00  0.00     0.093 A 
ATOM      8  C   UNL     1     -26.690 -14.171 146.129  1.00  0.00     0.137 A 
ATOM      9  C   UNL     1     -29.323 -10.757 144.902  1.00  0.00     0.158 A 
ATOM     10  N   UNL     1     -27.985 -13.778 146.153  1.00  0.00    -0.229 N 
ATOM     11  C   UNL     1     -26.574 -15.190 147.123  1.00  0.00     0.048 A 
ATOM     12  C   UNL     1     -27.602 -15.590 147.924  1.00  0.00     0.061 A 
ATOM     13  C   UNL     1     -28.974 -14.133 147.020  1.00  0.00     0.335 A 
ATOM     14  C   UNL     1     -25.204 -15.970 147.374  1.00  0.00    -0.007 A 
ATOM     15  N   UNL     1     -28.730 -15.119 147.788  1.00  0.00    -0.296 N 
ATOM     16  C   UNL     1     -29.924 -15.669 148.490  1.00  0.00     0.155 C 
ATOM     17  C   UNL     1     -24.329 -15.538 146.312  1.00  0.00     0.027 A 
ATOM     18  C   UNL     1     -29.246  -9.622 142.720  1.00  0.00    -0.010 A 
ATOM     19  N   UNL     1     -30.354  -9.842 145.290  1.00  0.00    -0.236 NA
ATOM     20  C   UNL     1     -28.728  -9.509 141.412  1.00  0.00     0.009 A 
ATOM     21  C   UNL     1     -30.629  -8.824 144.482  1.00  0.00     0.122 A 
ATOM     22  N   UNL     1     -29.394 -11.983 145.458  1.00  0.00    -0.210 NA
ATOM     23  C   UNL     1     -29.517  -8.751 140.561  1.00  0.00     0.001 A 
ATOM     24  C   UNL     1     -25.002 -16.688 148.388  1.00  0.00     0.061 A 
ATOM     25  C   UNL     1     -30.565  -8.002 140.932  1.00  0.00     0.001 A 
ATOM     26  C   UNL     1     -26.145 -17.034 149.266  1.00  0.00     0.181 A 
ATOM     27  O   UNL     1     -30.273 -13.707 146.931  1.00  0.00    -0.247 OA
ATOM     28  C   UNL     1     -30.217  -8.774 143.220  1.00  0.00     0.000 A 
ATOM     29  C   UNL     1     -27.391 -16.520 149.051  1.00  0.00     0.079 A 
ATOM     30  C   UNL     1     -30.929  -8.025 142.294  1.00  0.00     0.010 A 
ATOM     31  O   UNL     1     -25.945 -17.749 150.218  1.00  0.00    -0.290 OA
ENDROOT
TORSDOF 0
ENDMDL
MODEL 10
REMARK VINA RESULT:     -10.2      2.413      4.403
REMARK SMILES Cn1c(=O)n2c3c(cn4ccc5cc(=O)cc1c5c42)Cc1c(ncc2ccccc12)N=3
REMARK SMILES IDX 8 1 7 2 20 3 6 4 21 5 9 6 10 7 19 8 22 9 5 10 18 11 17 12
REMARK SMILES IDX 3 13 12 14 2 15 1 16 11 17 30 18 23 19 29 20 24 21 31 22
REMARK SMILES IDX 28 23 13 24 27 25 14 26 4 27 25 28 16 29 26 30 15 31
REMARK H PARENT
REMARK Flexibility Score: inf
ROOT
ATOM      1  C   UNL     1     -26.521 -13.433 142.674  1.00  0.00     0.100 A 
ATOM      2  C   UNL     1     -26.483 -13.731 143.861  1.00  0.00     0.017 A 
ATOM      3  C   UNL     1     -25.700 -14.737 144.424  1.00  0.00     0.081 C 
ATOM      4  C   UNL     1     -27.318 -13.093 144.935  1.00  0.00     0.150 A 
ATOM      5  C   UNL     1     -26.022 -15.589 145.452  1.00  0.00     0.009 A 
ATOM      6  N   UNL     1     -27.411 -12.351 142.207  1.00  0.00    -0.309 N 
ATOM      7  C   UNL     1     -27.433 -11.819 141.025  1.00  0.00     0.093 A 
ATOM      8  C   UNL     1     -28.175 -11.897 143.228  1.00  0.00     0.137 A 
ATOM      9  C   UNL     1     -27.164 -15.083 146.215  1.00  0.00     0.158 A 
ATOM     10  N   UNL     1     -28.147 -12.119 144.563  1.00  0.00    -0.229 N 
ATOM     11  C   UNL     1     -29.049 -10.783 143.036  1.00  0.00     0.048 A 
ATOM     12  C   UNL     1     -29.717 -10.160 144.048  1.00  0.00     0.061 A 
ATOM     13  C   UNL     1     -28.890 -11.536 145.545  1.00  0.00     0.335 A 
ATOM     14  C   UNL     1     -29.308 -10.155 141.592  1.00  0.00    -0.007 A 
ATOM     15  N   UNL     1     -29.553 -10.500 145.218  1.00  0.00    -0.296 N 
ATOM     16  C   UNL     1     -30.094  -9.720 146.368  1.00  0.00     0.155 C 
ATOM     17  C   UNL     1     -28.373 -10.824 140.722  1.00  0.00     0.027 A 
ATOM     18  C   UNL     1     -25.142 -16.485 146.161  1.00  0.00    -0.010 A 
ATOM     19  N   UNL     1     -27.578 -15.805 147.380  1.00  0.00    -0.236 NA
ATOM     20  C   UNL     1     -23.899 -16.826 145.586  1.00  0.00     0.009 A 
ATOM     21  C   UNL     1     -26.877 -16.875 147.740  1.00  0.00     0.122 A 
ATOM     22  N   UNL     1     -27.565 -13.797 146.155  1.00  0.00    -0.210 NA
ATOM     23  C   UNL     1     -23.086 -17.581 146.418  1.00  0.00     0.001 A 
ATOM     24  C   UNL     1     -30.243  -9.345 141.357  1.00  0.00     0.061 A 
ATOM     25  C   UNL     1     -23.463 -18.141 147.575  1.00  0.00     0.001 A 
ATOM     26  C   UNL     1     -30.986  -8.751 142.493  1.00  0.00     0.181 A 
ATOM     27  O   UNL     1     -28.754 -11.805 146.882  1.00  0.00    -0.247 OA
ATOM     28  C   UNL     1     -25.664 -17.135 147.264  1.00  0.00     0.000 A 
ATOM     29  C   UNL     1     -30.739  -9.129 143.782  1.00  0.00     0.079 A 
ATOM     30  C   UNL     1     -24.782 -17.900 148.013  1.00  0.00     0.010 A 
ATOM     31  O   UNL     1     -31.860  -7.952 142.257  1.00  0.00    -0.290 OA
ENDROOT
TORSDOF 0
ENDMDL
