MODEL 1
REMARK VINA RESULT:     -11.8      0.000      0.000
REMARK SMILES CN1C=NC2=NCn3cc4c5c([nH]nc6nc1c2c3-n-6-5)C1=C(C4)c2ccccc2CN1
REMARK SMILES IDX 9 1 10 2 23 3 11 4 22 5 8 6 7 7 19 8 21 9 20 10 18 11 17 12
REMARK SMILES IDX 24 13 16 14 5 15 29 16 4 17 25 18 6 19 15 20 3 21 31 22
REMARK SMILES IDX 28 23 2 24 14 25 12 26 13 27 30 28 26 29 27 30 1 31
REMARK H PARENT 31 32 13 33
REMARK Flexibility Score: inf
ROOT
ATOM      1  C   UNL     1     -25.033 -14.882 144.142  1.00  0.00     0.095 A 
ATOM      2  C   UNL     1     -26.110 -14.343 144.363  1.00  0.00    -0.001 A 
ATOM      3  C   UNL     1     -26.772 -13.465 143.506  1.00  0.00     0.077 C 
ATOM      4  C   UNL     1     -26.903 -14.492 145.630  1.00  0.00     0.083 A 
ATOM      5  C   UNL     1     -27.505 -12.350 143.833  1.00  0.00    -0.010 C 
ATOM      6  N   UNL     1     -24.433 -15.783 145.147  1.00  0.00    -0.313 N 
ATOM      7  C   UNL     1     -23.397 -16.546 144.986  1.00  0.00     0.269 C 
ATOM      8  C   UNL     1     -25.177 -15.789 146.277  1.00  0.00     0.136 A 
ATOM      9  C   UNL     1     -27.885 -12.368 145.246  1.00  0.00     0.066 C 
ATOM     10  N   UNL     1     -26.398 -15.285 146.574  1.00  0.00    -0.260 N 
ATOM     11  C   UNL     1     -24.843 -16.662 147.358  1.00  0.00     0.104 A 
ATOM     12  C   UNL     1     -25.634 -16.852 148.452  1.00  0.00     0.152 A 
ATOM     13  C   UNL     1     -28.057 -11.416 142.923  1.00  0.00    -0.015 A 
ATOM     14  N   UNL     1     -26.852 -16.262 148.579  1.00  0.00    -0.192 NA
ATOM     15  C   UNL     1     -23.533 -17.454 147.440  1.00  0.00     0.165 C 
ATOM     16  C   UNL     1     -28.766 -10.326 143.580  1.00  0.00    -0.021 A 
ATOM     17  N   UNL     1     -23.146 -18.097 148.453  1.00  0.00    -0.219 NA
ATOM     18  C   UNL     1     -28.135 -11.559 141.626  1.00  0.00     0.009 A 
ATOM     19  N   UNL     1     -22.720 -17.577 146.308  1.00  0.00    -0.244 NA
ATOM     20  C   UNL     1     -27.256 -15.480 147.609  1.00  0.00     0.255 A 
ATOM     21  C   UNL     1     -24.004 -18.094 149.595  1.00  0.00     0.203 C 
ATOM     22  N   UNL     1     -28.757 -11.340 145.741  1.00  0.00    -0.379 N 
ATOM     23  C   UNL     1     -29.444  -9.576 142.751  1.00  0.00     0.006 A 
ATOM     24  N   UNL     1     -25.329 -17.653 149.602  1.00  0.00    -0.319 N 
ATOM     25  N   UNL     1     -28.416 -14.861 147.640  1.00  0.00    -0.135 NA
ATOM     26  C   UNL     1     -28.013 -13.681 146.158  1.00  0.00     0.104 A 
ATOM     27  N   UNL     1     -28.860 -14.035 146.828  1.00  0.00    -0.271 N 
ATOM     28  C   UNL     1     -28.814 -10.196 145.049  1.00  0.00     0.149 C 
ATOM     29  C   UNL     1     -28.811 -10.706 140.828  1.00  0.00     0.001 A 
ATOM     30  C   UNL     1     -29.667  -9.774 141.452  1.00  0.00     0.000 A 
ATOM     31  C   UNL     1     -26.073 -17.753 150.736  1.00  0.00     0.153 C 
ATOM     32  H   UNL     1     -96.099 -46.286 271.152  1.00  0.00     0.160 HD
ATOM     33  H   UNL     1     -96.099 -46.286 271.152  1.00  0.00     0.190 HD
ENDROOT
TORSDOF 0
ENDMDL
MODEL 2
REMARK VINA RESULT:     -11.6      2.835      8.991
REMARK SMILES CN1C=NC2=NCn3cc4c5c([nH]nc6nc1c2c3-n-6-5)C1=C(C4)c2ccccc2CN1
REMARK SMILES IDX 9 1 10 2 23 3 11 4 22 5 8 6 7 7 19 8 21 9 20 10 18 11 17 12
REMARK SMILES IDX 24 13 16 14 5 15 29 16 4 17 25 18 6 19 15 20 3 21 31 22
REMARK SMILES IDX 28 23 2 24 14 25 12 26 13 27 30 28 26 29 27 30 1 31
REMARK H PARENT 31 32 13 33
REMARK Flexibility Score: inf
ROOT
ATOM      1  C   UNL     1     -29.142 -10.956 145.176  1.00  0.00     0.095 A 
ATOM      2  C   UNL     1     -28.504 -11.926 144.788  1.00  0.00    -0.001 A 
ATOM      3  C   UNL     1     -28.114 -13.011 145.572  1.00  0.00     0.077 C 
ATOM      4  C   UNL     1     -27.977 -12.107 143.394  1.00  0.00     0.083 A 
ATOM      5  C   UNL     1     -26.940 -13.723 145.513  1.00  0.00    -0.010 C 
ATOM      6  N   UNL     1     -29.477  -9.864 144.240  1.00  0.00    -0.313 N 
ATOM      7  C   UNL     1     -30.279  -8.869 144.463  1.00  0.00     0.269 C 
ATOM      8  C   UNL     1     -28.894 -10.080 143.038  1.00  0.00     0.136 A 
ATOM      9  C   UNL     1     -26.252 -13.495 144.242  1.00  0.00     0.066 C 
ATOM     10  N   UNL     1     -28.242 -11.144 142.513  1.00  0.00    -0.260 N 
ATOM     11  C   UNL     1     -29.154  -9.201 141.942  1.00  0.00     0.104 A 
ATOM     12  C   UNL     1     -28.747  -9.443 140.663  1.00  0.00     0.152 A 
ATOM     13  C   UNL     1     -26.533 -14.740 146.412  1.00  0.00    -0.015 A 
ATOM     14  N   UNL     1     -28.101 -10.587 140.310  1.00  0.00    -0.192 NA
ATOM     15  C   UNL     1     -29.879  -7.858 142.078  1.00  0.00     0.165 C 
ATOM     16  C   UNL     1     -25.223 -15.293 146.094  1.00  0.00    -0.021 A 
ATOM     17  N   UNL     1     -29.973  -6.997 141.162  1.00  0.00    -0.219 NA
ATOM     18  C   UNL     1     -27.280 -15.307 147.322  1.00  0.00     0.009 A 
ATOM     19  N   UNL     1     -30.579  -7.560 143.253  1.00  0.00    -0.244 NA
ATOM     20  C   UNL     1     -27.864 -11.469 141.250  1.00  0.00     0.255 A 
ATOM     21  C   UNL     1     -29.371  -7.312 139.906  1.00  0.00     0.203 C 
ATOM     22  N   UNL     1     -25.065 -14.251 143.953  1.00  0.00    -0.379 N 
ATOM     23  C   UNL     1     -24.930 -16.361 146.791  1.00  0.00     0.006 A 
ATOM     24  N   UNL     1     -28.907  -8.576 139.532  1.00  0.00    -0.319 N 
ATOM     25  N   UNL     1     -27.244 -12.603 141.009  1.00  0.00    -0.135 NA
ATOM     26  C   UNL     1     -26.951 -13.029 142.876  1.00  0.00     0.104 A 
ATOM     27  N   UNL     1     -26.889 -13.465 141.828  1.00  0.00    -0.271 N 
ATOM     28  C   UNL     1     -24.397 -14.768 144.991  1.00  0.00     0.149 C 
ATOM     29  C   UNL     1     -26.882 -16.376 148.042  1.00  0.00     0.001 A 
ATOM     30  C   UNL     1     -25.719 -17.051 147.615  1.00  0.00     0.000 A 
ATOM     31  C   UNL     1     -28.406  -8.775 138.284  1.00  0.00     0.153 C 
ATOM     32  H   UNL     1       8.767 -18.843   1.410  1.00  0.00     0.160 HD
ATOM     33  H   UNL     1       8.767 -18.843   1.410  1.00  0.00     0.190 HD
ENDROOT
TORSDOF 0
ENDMDL
MODEL 3
REMARK VINA RESULT:     -11.3      4.666      7.619
REMARK SMILES CN1C=NC2=NCn3cc4c5c([nH]nc6nc1c2c3-n-6-5)C1=C(C4)c2ccccc2CN1
REMARK SMILES IDX 9 1 10 2 23 3 11 4 22 5 8 6 7 7 19 8 21 9 20 10 18 11 17 12
REMARK SMILES IDX 24 13 16 14 5 15 29 16 4 17 25 18 6 19 15 20 3 21 31 22
REMARK SMILES IDX 28 23 2 24 14 25 12 26 13 27 30 28 26 29 27 30 1 31
REMARK H PARENT 31 32 13 33
REMARK Flexibility Score: inf
ROOT
ATOM      1  C   UNL     1     -30.438 -12.405 148.374  1.00  0.00     0.095 A 
ATOM      2  C   UNL     1     -29.674 -13.359 148.292  1.00  0.00    -0.001 A 
ATOM      3  C   UNL     1     -28.527 -13.418 147.503  1.00  0.00     0.077 C 
ATOM      4  C   UNL     1     -29.859 -14.672 148.997  1.00  0.00     0.083 A 
ATOM      5  C   UNL     1     -28.029 -14.493 146.807  1.00  0.00    -0.010 C 
ATOM      6  N   UNL     1     -31.631 -12.481 149.240  1.00  0.00    -0.313 N 
ATOM      7  C   UNL     1     -32.426 -11.506 149.554  1.00  0.00     0.269 C 
ATOM      8  C   UNL     1     -31.752 -13.722 149.766  1.00  0.00     0.136 A 
ATOM      9  C   UNL     1     -28.609 -15.746 147.292  1.00  0.00     0.066 C 
ATOM     10  N   UNL     1     -30.928 -14.797 149.782  1.00  0.00    -0.260 N 
ATOM     11  C   UNL     1     -32.783 -14.008 150.713  1.00  0.00     0.104 A 
ATOM     12  C   UNL     1     -32.868 -15.175 151.413  1.00  0.00     0.152 A 
ATOM     13  C   UNL     1     -26.926 -14.476 145.917  1.00  0.00    -0.015 A 
ATOM     14  N   UNL     1     -31.931 -16.154 151.309  1.00  0.00    -0.192 NA
ATOM     15  C   UNL     1     -33.945 -13.057 151.022  1.00  0.00     0.165 C 
ATOM     16  C   UNL     1     -26.654 -15.775 145.317  1.00  0.00    -0.021 A 
ATOM     17  N   UNL     1     -34.947 -13.354 151.726  1.00  0.00    -0.219 NA
ATOM     18  C   UNL     1     -26.080 -13.492 145.759  1.00  0.00     0.009 A 
ATOM     19  N   UNL     1     -33.891 -11.727 150.591  1.00  0.00    -0.244 NA
ATOM     20  C   UNL     1     -30.924 -15.953 150.494  1.00  0.00     0.255 A 
ATOM     21  C   UNL     1     -34.987 -14.668 152.284  1.00  0.00     0.203 C 
ATOM     22  N   UNL     1     -28.117 -16.987 146.762  1.00  0.00    -0.379 N 
ATOM     23  C   UNL     1     -25.526 -15.813 144.656  1.00  0.00     0.006 A 
ATOM     24  N   UNL     1     -33.910 -15.557 152.322  1.00  0.00    -0.319 N 
ATOM     25  N   UNL     1     -29.970 -16.840 150.322  1.00  0.00    -0.135 NA
ATOM     26  C   UNL     1     -29.228 -15.981 148.753  1.00  0.00     0.104 A 
ATOM     27  N   UNL     1     -29.026 -16.796 149.518  1.00  0.00    -0.271 N 
ATOM     28  C   UNL     1     -27.510 -16.949 145.570  1.00  0.00     0.149 C 
ATOM     29  C   UNL     1     -24.962 -13.593 145.011  1.00  0.00     0.001 A 
ATOM     30  C   UNL     1     -24.573 -14.883 144.596  1.00  0.00     0.000 A 
ATOM     31  C   UNL     1     -34.045 -16.764 152.934  1.00  0.00     0.153 C 
ATOM     32  H   UNL     1     -57.463-133.072 231.304  1.00  0.00     0.160 HD
ATOM     33  H   UNL     1     -57.463-133.072 231.304  1.00  0.00     0.190 HD
ENDROOT
TORSDOF 0
ENDMDL
MODEL 4
REMARK VINA RESULT:     -11.3      3.821      7.146
REMARK SMILES CN1C=NC2=NCn3cc4c5c([nH]nc6nc1c2c3-n-6-5)C1=C(C4)c2ccccc2CN1
REMARK SMILES IDX 9 1 10 2 23 3 11 4 22 5 8 6 7 7 19 8 21 9 20 10 18 11 17 12
REMARK SMILES IDX 24 13 16 14 5 15 29 16 4 17 25 18 6 19 15 20 3 21 31 22
REMARK SMILES IDX 28 23 2 24 14 25 12 26 13 27 30 28 26 29 27 30 1 31
REMARK H PARENT 31 32 13 33
REMARK Flexibility Score: inf
ROOT
ATOM      1  C   UNL     1     -29.072 -16.556 149.052  1.00  0.00     0.095 A 
ATOM      2  C   UNL     1     -28.622 -15.818 148.185  1.00  0.00    -0.001 A 
ATOM      3  C   UNL     1     -27.551 -16.110 147.343  1.00  0.00     0.077 C 
ATOM      4  C   UNL     1     -29.114 -14.428 147.898  1.00  0.00     0.083 A 
ATOM      5  C   UNL     1     -26.572 -15.260 146.888  1.00  0.00    -0.010 C 
ATOM      6  N   UNL     1     -30.206 -16.115 149.889  1.00  0.00    -0.313 N 
ATOM      7  C   UNL     1     -30.888 -16.841 150.719  1.00  0.00     0.269 C 
ATOM      8  C   UNL     1     -30.523 -14.829 149.610  1.00  0.00     0.136 A 
ATOM      9  C   UNL     1     -26.975 -13.863 147.047  1.00  0.00     0.066 C 
ATOM     10  N   UNL     1     -30.129 -13.978 148.634  1.00  0.00    -0.260 N 
ATOM     11  C   UNL     1     -31.654 -14.213 150.231  1.00  0.00     0.104 A 
ATOM     12  C   UNL     1     -32.139 -12.989 149.879  1.00  0.00     0.152 A 
ATOM     13  C   UNL     1     -25.431 -15.627 146.132  1.00  0.00    -0.015 A 
ATOM     14  N   UNL     1     -31.615 -12.268 148.852  1.00  0.00    -0.192 NA
ATOM     15  C   UNL     1     -32.427 -14.832 151.400  1.00  0.00     0.165 C 
ATOM     16  C   UNL     1     -24.566 -14.499 145.817  1.00  0.00    -0.021 A 
ATOM     17  N   UNL     1     -33.317 -14.238 152.067  1.00  0.00    -0.219 NA
ATOM     18  C   UNL     1     -25.218 -16.790 145.574  1.00  0.00     0.009 A 
ATOM     19  N   UNL     1     -32.232 -16.178 151.730  1.00  0.00    -0.244 NA
ATOM     20  C   UNL     1     -30.604 -12.782 148.197  1.00  0.00     0.255 A 
ATOM     21  C   UNL     1     -33.630 -12.897 151.688  1.00  0.00     0.203 C 
ATOM     22  N   UNL     1     -26.126 -12.833 146.516  1.00  0.00    -0.379 N 
ATOM     23  C   UNL     1     -23.625 -14.792 144.957  1.00  0.00     0.006 A 
ATOM     24  N   UNL     1     -33.219 -12.281 150.504  1.00  0.00    -0.319 N 
ATOM     25  N   UNL     1     -30.027 -12.162 147.192  1.00  0.00    -0.135 NA
ATOM     26  C   UNL     1     -28.486 -13.335 147.137  1.00  0.00     0.104 A 
ATOM     27  N   UNL     1     -29.016 -12.509 146.563  1.00  0.00    -0.271 N 
ATOM     28  C   UNL     1     -24.838 -13.139 146.319  1.00  0.00     0.149 C 
ATOM     29  C   UNL     1     -24.188 -17.031 144.738  1.00  0.00     0.001 A 
ATOM     30  C   UNL     1     -23.466 -15.917 144.259  1.00  0.00     0.000 A 
ATOM     31  C   UNL     1     -33.628 -11.016 150.217  1.00  0.00     0.153 C 
ATOM     32  H   UNL     1     -94.253 115.387 126.455  1.00  0.00     0.160 HD
ATOM     33  H   UNL     1     -94.253 115.387 126.455  1.00  0.00     0.190 HD
ENDROOT
TORSDOF 0
ENDMDL
MODEL 5
REMARK VINA RESULT:     -11.3      3.844      6.891
REMARK SMILES CN1C=NC2=NCn3cc4c5c([nH]nc6nc1c2c3-n-6-5)C1=C(C4)c2ccccc2CN1
REMARK SMILES IDX 9 1 10 2 23 3 11 4 22 5 8 6 7 7 19 8 21 9 20 10 18 11 17 12
REMARK SMILES IDX 24 13 16 14 5 15 29 16 4 17 25 18 6 19 15 20 3 21 31 22
REMARK SMILES IDX 28 23 2 24 14 25 12 26 13 27 30 28 26 29 27 30 1 31
REMARK H PARENT 31 32 13 33
REMARK Flexibility Score: inf
ROOT
ATOM      1  C   UNL     1     -29.125 -12.541 147.588  1.00  0.00     0.095 A 
ATOM      2  C   UNL     1     -29.587 -13.600 147.993  1.00  0.00    -0.001 A 
ATOM      3  C   UNL     1     -30.733 -13.743 148.774  1.00  0.00     0.077 C 
ATOM      4  C   UNL     1     -28.973 -14.951 147.761  1.00  0.00     0.083 A 
ATOM      5  C   UNL     1     -30.960 -14.636 149.793  1.00  0.00    -0.010 C 
ATOM      6  N   UNL     1     -27.890 -12.529 146.778  1.00  0.00    -0.313 N 
ATOM      7  C   UNL     1     -27.384 -11.516 146.148  1.00  0.00     0.269 C 
ATOM      8  C   UNL     1     -27.373 -13.777 146.693  1.00  0.00     0.136 A 
ATOM      9  C   UNL     1     -30.005 -15.744 149.743  1.00  0.00     0.066 C 
ATOM     10  N   UNL     1     -27.850 -14.994 147.045  1.00  0.00    -0.260 N 
ATOM     11  C   UNL     1     -26.226 -14.029 145.878  1.00  0.00     0.104 A 
ATOM     12  C   UNL     1     -25.751 -15.277 145.603  1.00  0.00     0.152 A 
ATOM     13  C   UNL     1     -32.093 -14.664 150.643  1.00  0.00    -0.015 A 
ATOM     14  N   UNL     1     -26.373 -16.404 146.040  1.00  0.00    -0.192 NA
ATOM     15  C   UNL     1     -25.364 -12.926 145.255  1.00  0.00     0.165 C 
ATOM     16  C   UNL     1     -32.031 -15.721 151.644  1.00  0.00    -0.021 A 
ATOM     17  N   UNL     1     -24.262 -13.119 144.674  1.00  0.00    -0.219 NA
ATOM     18  C   UNL     1     -33.196 -13.983 150.479  1.00  0.00     0.009 A 
ATOM     19  N   UNL     1     -25.834 -11.608 145.222  1.00  0.00    -0.244 NA
ATOM     20  C   UNL     1     -27.461 -16.263 146.757  1.00  0.00     0.255 A 
ATOM     21  C   UNL     1     -23.799 -14.467 144.583  1.00  0.00     0.203 C 
ATOM     22  N   UNL     1     -30.164 -16.836 150.661  1.00  0.00    -0.379 N 
ATOM     23  C   UNL     1     -33.153 -15.882 152.297  1.00  0.00     0.006 A 
ATOM     24  N   UNL     1     -24.569 -15.600 144.858  1.00  0.00    -0.319 N 
ATOM     25  N   UNL     1     -28.132 -17.291 147.228  1.00  0.00    -0.135 NA
ATOM     26  C   UNL     1     -29.221 -16.237 148.434  1.00  0.00     0.104 A 
ATOM     27  N   UNL     1     -29.114 -17.276 147.985  1.00  0.00    -0.271 N 
ATOM     28  C   UNL     1     -30.856 -16.602 151.782  1.00  0.00     0.149 C 
ATOM     29  C   UNL     1     -34.298 -14.168 151.234  1.00  0.00     0.001 A 
ATOM     30  C   UNL     1     -34.335 -15.312 152.059  1.00  0.00     0.000 A 
ATOM     31  C   UNL     1     -24.042 -16.840 144.678  1.00  0.00     0.153 C 
ATOM     32  H   UNL     1      38.401-139.487 108.951  1.00  0.00     0.160 HD
ATOM     33  H   UNL     1      38.401-139.487 108.951  1.00  0.00     0.190 HD
ENDROOT
TORSDOF 0
ENDMDL
MODEL 6
REMARK VINA RESULT:     -11.2      2.088      4.628
REMARK SMILES CN1C=NC2=NCn3cc4c5c([nH]nc6nc1c2c3-n-6-5)C1=C(C4)c2ccccc2CN1
REMARK SMILES IDX 9 1 10 2 23 3 11 4 22 5 8 6 7 7 19 8 21 9 20 10 18 11 17 12
REMARK SMILES IDX 24 13 16 14 5 15 29 16 4 17 25 18 6 19 15 20 3 21 31 22
REMARK SMILES IDX 28 23 2 24 14 25 12 26 13 27 30 28 26 29 27 30 1 31
REMARK H PARENT 31 32 13 33
REMARK Flexibility Score: inf
ROOT
ATOM      1  C   UNL     1     -30.098 -11.262 146.419  1.00  0.00     0.095 A 
ATOM      2  C   UNL     1     -29.356 -11.059 145.466  1.00  0.00    -0.001 A 
ATOM      3  C   UNL     1     -29.417  -9.965 144.605  1.00  0.00     0.077 C 
ATOM      4  C   UNL     1     -28.263 -11.985 145.014  1.00  0.00     0.083 A 
ATOM      5  C   UNL     1     -29.195  -9.937 143.250  1.00  0.00    -0.010 C 
ATOM      6  N   UNL     1     -29.933 -12.476 147.245  1.00  0.00    -0.313 N 
ATOM      7  C   UNL     1     -30.524 -12.737 148.368  1.00  0.00     0.269 C 
ATOM      8  C   UNL     1     -28.982 -13.279 146.713  1.00  0.00     0.136 A 
ATOM      9  C   UNL     1     -28.471 -11.131 142.812  1.00  0.00     0.066 C 
ATOM     10  N   UNL     1     -28.081 -13.101 145.718  1.00  0.00    -0.260 N 
ATOM     11  C   UNL     1     -28.582 -14.471 147.393  1.00  0.00     0.104 A 
ATOM     12  C   UNL     1     -27.521 -15.239 147.016  1.00  0.00     0.152 A 
ATOM     13  C   UNL     1     -29.389  -8.825 142.393  1.00  0.00    -0.015 A 
ATOM     14  N   UNL     1     -26.707 -14.897 145.982  1.00  0.00    -0.192 NA
ATOM     15  C   UNL     1     -29.326 -15.056 148.599  1.00  0.00     0.165 C 
ATOM     16  C   UNL     1     -29.084  -9.117 140.999  1.00  0.00    -0.021 A 
ATOM     17  N   UNL     1     -29.091 -16.185 149.108  1.00  0.00    -0.219 NA
ATOM     18  C   UNL     1     -29.618  -7.595 142.769  1.00  0.00     0.009 A 
ATOM     19  N   UNL     1     -30.279 -14.284 149.272  1.00  0.00    -0.244 NA
ATOM     20  C   UNL     1     -26.977 -13.791 145.333  1.00  0.00     0.255 A 
ATOM     21  C   UNL     1     -28.044 -16.960 148.522  1.00  0.00     0.203 C 
ATOM     22  N   UNL     1     -28.045 -11.219 141.444  1.00  0.00    -0.379 N 
ATOM     23  C   UNL     1     -29.067  -8.052 140.239  1.00  0.00     0.006 A 
ATOM     24  N   UNL     1     -27.107 -16.480 147.604  1.00  0.00    -0.319 N 
ATOM     25  N   UNL     1     -26.252 -13.377 144.317  1.00  0.00    -0.135 NA
ATOM     26  C   UNL     1     -27.528 -12.039 143.739  1.00  0.00     0.104 A 
ATOM     27  N   UNL     1     -26.464 -12.403 143.578  1.00  0.00    -0.271 N 
ATOM     28  C   UNL     1     -28.694 -10.466 140.548  1.00  0.00     0.149 C 
ATOM     29  C   UNL     1     -29.640  -6.553 141.913  1.00  0.00     0.001 A 
ATOM     30  C   UNL     1     -29.149  -6.774 140.609  1.00  0.00     0.000 A 
ATOM     31  C   UNL     1     -26.114 -17.294 147.157  1.00  0.00     0.153 C 
ATOM     32  H   UNL     1      79.595-108.188 119.200  1.00  0.00     0.160 HD
ATOM     33  H   UNL     1      79.595-108.188 119.200  1.00  0.00     0.190 HD
ENDROOT
TORSDOF 0
ENDMDL
MODEL 7
REMARK VINA RESULT:     -10.8      2.970      8.337
REMARK SMILES CN1C=NC2=NCn3cc4c5c([nH]nc6nc1c2c3-n-6-5)C1=C(C4)c2ccccc2CN1
REMARK SMILES IDX 9 1 10 2 23 3 11 4 22 5 8 6 7 7 19 8 21 9 20 10 18 11 17 12
REMARK SMILES IDX 24 13 16 14 5 15 29 16 4 17 25 18 6 19 15 20 3 21 31 22
REMARK SMILES IDX 28 23 2 24 14 25 12 26 13 27 30 28 26 29 27 30 1 31
REMARK H PARENT 31 32 13 33
REMARK Flexibility Score: inf
ROOT
ATOM      1  C   UNL     1     -26.838 -13.473 141.922  1.00  0.00     0.095 A 
ATOM      2  C   UNL     1     -27.017 -13.270 143.117  1.00  0.00    -0.001 A 
ATOM      3  C   UNL     1     -26.724 -14.161 144.147  1.00  0.00     0.077 C 
ATOM      4  C   UNL     1     -27.636 -12.029 143.695  1.00  0.00     0.083 A 
ATOM      5  C   UNL     1     -27.431 -14.385 145.304  1.00  0.00    -0.010 C 
ATOM      6  N   UNL     1     -27.209 -12.444 140.930  1.00  0.00    -0.313 N 
ATOM      7  C   UNL     1     -26.927 -12.448 139.664  1.00  0.00     0.269 C 
ATOM      8  C   UNL     1     -27.827 -11.405 141.539  1.00  0.00     0.136 A 
ATOM      9  C   UNL     1     -28.356 -13.283 145.574  1.00  0.00     0.066 C 
ATOM     10  N   UNL     1     -27.999 -11.075 142.840  1.00  0.00    -0.260 N 
ATOM     11  C   UNL     1     -28.194 -10.244 140.790  1.00  0.00     0.104 A 
ATOM     12  C   UNL     1     -28.660  -9.094 141.355  1.00  0.00     0.152 A 
ATOM     13  C   UNL     1     -27.164 -15.390 146.266  1.00  0.00    -0.015 A 
ATOM     14  N   UNL     1     -28.760  -8.934 142.701  1.00  0.00    -0.192 NA
ATOM     15  C   UNL     1     -28.153 -10.168 139.260  1.00  0.00     0.165 C 
ATOM     16  C   UNL     1     -28.107 -15.384 147.376  1.00  0.00    -0.021 A 
ATOM     17  N   UNL     1     -28.624  -9.220 138.576  1.00  0.00    -0.219 NA
ATOM     18  C   UNL     1     -26.095 -16.139 146.320  1.00  0.00     0.009 A 
ATOM     19  N   UNL     1     -27.476 -11.151 138.531  1.00  0.00    -0.244 NA
ATOM     20  C   UNL     1     -28.399  -9.936 143.464  1.00  0.00     0.255 A 
ATOM     21  C   UNL     1     -29.223  -8.136 139.288  1.00  0.00     0.203 C 
ATOM     22  N   UNL     1     -29.094 -13.287 146.806  1.00  0.00    -0.379 N 
ATOM     23  C   UNL     1     -27.753 -16.169 148.361  1.00  0.00     0.006 A 
ATOM     24  N   UNL     1     -29.113  -7.921 140.664  1.00  0.00    -0.319 N 
ATOM     25  N   UNL     1     -28.462  -9.880 144.776  1.00  0.00    -0.135 NA
ATOM     26  C   UNL     1     -28.198 -11.782 145.034  1.00  0.00     0.104 A 
ATOM     27  N   UNL     1     -28.234 -10.790 145.588  1.00  0.00    -0.271 N 
ATOM     28  C   UNL     1     -29.259 -14.464 147.421  1.00  0.00     0.149 C 
ATOM     29  C   UNL     1     -25.827 -16.970 147.348  1.00  0.00     0.001 A 
ATOM     30  C   UNL     1     -26.606 -16.831 148.516  1.00  0.00     0.000 A 
ATOM     31  C   UNL     1     -29.676  -6.820 141.228  1.00  0.00     0.153 C 
ATOM     32  H   UNL     1     -81.238 118.333 184.771  1.00  0.00     0.160 HD
ATOM     33  H   UNL     1     -81.238 118.333 184.771  1.00  0.00     0.190 HD
ENDROOT
TORSDOF 0
ENDMDL
MODEL 8
REMARK VINA RESULT:     -10.2      2.124      7.992
REMARK SMILES CN1C=NC2=NCn3cc4c5c([nH]nc6nc1c2c3-n-6-5)C1=C(C4)c2ccccc2CN1
REMARK SMILES IDX 9 1 10 2 23 3 11 4 22 5 8 6 7 7 19 8 21 9 20 10 18 11 17 12
REMARK SMILES IDX 24 13 16 14 5 15 29 16 4 17 25 18 6 19 15 20 3 21 31 22
REMARK SMILES IDX 28 23 2 24 14 25 12 26 13 27 30 28 26 29 27 30 1 31
REMARK H PARENT 31 32 13 33
REMARK Flexibility Score: inf
ROOT
ATOM      1  C   UNL     1     -26.563 -13.291 142.381  1.00  0.00     0.095 A 
ATOM      2  C   UNL     1     -26.569 -13.523 143.583  1.00  0.00    -0.001 A 
ATOM      3  C   UNL     1     -25.857 -14.537 144.221  1.00  0.00     0.077 C 
ATOM      4  C   UNL     1     -27.392 -12.782 144.598  1.00  0.00     0.083 A 
ATOM      5  C   UNL     1     -26.250 -15.312 145.285  1.00  0.00    -0.010 C 
ATOM      6  N   UNL     1     -27.379 -12.190 141.832  1.00  0.00    -0.313 N 
ATOM      7  C   UNL     1     -27.343 -11.724 140.623  1.00  0.00     0.269 C 
ATOM      8  C   UNL     1     -28.140 -11.638 142.806  1.00  0.00     0.136 A 
ATOM      9  C   UNL     1     -27.379 -14.702 145.989  1.00  0.00     0.066 C 
ATOM     10  N   UNL     1     -28.157 -11.786 144.152  1.00  0.00    -0.260 N 
ATOM     11  C   UNL     1     -28.945 -10.490 142.531  1.00  0.00     0.104 A 
ATOM     12  C   UNL     1     -29.602  -9.777 143.489  1.00  0.00     0.152 A 
ATOM     13  C   UNL     1     -25.543 -16.416 145.823  1.00  0.00    -0.015 A 
ATOM     14  N   UNL     1     -29.495 -10.068 144.813  1.00  0.00    -0.192 NA
ATOM     15  C   UNL     1     -29.208  -9.951 141.120  1.00  0.00     0.165 C 
ATOM     16  C   UNL     1     -26.232 -17.047 146.941  1.00  0.00    -0.021 A 
ATOM     17  N   UNL     1     -30.041  -9.048 140.841  1.00  0.00    -0.219 NA
ATOM     18  C   UNL     1     -24.317 -16.760 145.531  1.00  0.00     0.009 A 
ATOM     19  N   UNL     1     -28.429 -10.398 140.047  1.00  0.00    -0.244 NA
ATOM     20  C   UNL     1     -28.736 -11.079 145.157  1.00  0.00     0.255 A 
ATOM     21  C   UNL     1     -30.777  -8.480 141.926  1.00  0.00     0.203 C 
ATOM     22  N   UNL     1     -27.850 -15.312 147.201  1.00  0.00    -0.379 N 
ATOM     23  C   UNL     1     -25.499 -17.932 147.567  1.00  0.00     0.006 A 
ATOM     24  N   UNL     1     -30.482  -8.664 143.279  1.00  0.00    -0.319 N 
ATOM     25  N   UNL     1     -28.571 -11.442 146.409  1.00  0.00    -0.135 NA
ATOM     26  C   UNL     1     -27.746 -13.141 145.982  1.00  0.00     0.104 A 
ATOM     27  N   UNL     1     -27.955 -12.428 146.842  1.00  0.00    -0.271 N 
ATOM     28  C   UNL     1     -27.566 -16.606 147.389  1.00  0.00     0.149 C 
ATOM     29  C   UNL     1     -23.645 -17.727 146.189  1.00  0.00     0.001 A 
ATOM     30  C   UNL     1     -24.205 -18.202 147.394  1.00  0.00     0.000 A 
ATOM     31  C   UNL     1     -31.216  -8.024 144.228  1.00  0.00     0.153 C 
ATOM     32  H   UNL     1    -106.698  74.712 231.834  1.00  0.00     0.160 HD
ATOM     33  H   UNL     1    -106.698  74.712 231.834  1.00  0.00     0.190 HD
ENDROOT
TORSDOF 0
ENDMDL
MODEL 9
REMARK VINA RESULT:      -9.5      2.642      7.953
REMARK SMILES CN1C=NC2=NCn3cc4c5c([nH]nc6nc1c2c3-n-6-5)C1=C(C4)c2ccccc2CN1
REMARK SMILES IDX 9 1 10 2 23 3 11 4 22 5 8 6 7 7 19 8 21 9 20 10 18 11 17 12
REMARK SMILES IDX 24 13 16 14 5 15 29 16 4 17 25 18 6 19 15 20 3 21 31 22
REMARK SMILES IDX 28 23 2 24 14 25 12 26 13 27 30 28 26 29 27 30 1 31
REMARK H PARENT 31 32 13 33
REMARK Flexibility Score: inf
ROOT
ATOM      1  C   UNL     1     -26.700 -13.702 143.832  1.00  0.00     0.095 A 
ATOM      2  C   UNL     1     -27.020 -13.725 145.014  1.00  0.00    -0.001 A 
ATOM      3  C   UNL     1     -26.560 -14.634 145.964  1.00  0.00     0.077 C 
ATOM      4  C   UNL     1     -28.013 -12.798 145.654  1.00  0.00     0.083 A 
ATOM      5  C   UNL     1     -27.256 -15.204 147.002  1.00  0.00    -0.010 C 
ATOM      6  N   UNL     1     -27.277 -12.689 142.925  1.00  0.00    -0.313 N 
ATOM      7  C   UNL     1     -26.912 -12.439 141.707  1.00  0.00     0.269 C 
ATOM      8  C   UNL     1     -28.214 -11.958 143.573  1.00  0.00     0.136 A 
ATOM      9  C   UNL     1     -28.479 -14.452 147.289  1.00  0.00     0.066 C 
ATOM     10  N   UNL     1     -28.573 -11.873 144.876  1.00  0.00    -0.260 N 
ATOM     11  C   UNL     1     -28.844 -10.852 142.923  1.00  0.00     0.104 A 
ATOM     12  C   UNL     1     -29.665  -9.967 143.557  1.00  0.00     0.152 A 
ATOM     13  C   UNL     1     -26.783 -16.219 147.870  1.00  0.00    -0.015 A 
ATOM     14  N   UNL     1     -29.909 -10.030 144.893  1.00  0.00    -0.192 NA
ATOM     15  C   UNL     1     -28.712 -10.556 141.425  1.00  0.00     0.165 C 
ATOM     16  C   UNL     1     -27.768 -16.629 148.862  1.00  0.00    -0.021 A 
ATOM     17  N   UNL     1     -29.385  -9.690 140.803  1.00  0.00    -0.219 NA
ATOM     18  C   UNL     1     -25.549 -16.641 147.959  1.00  0.00     0.009 A 
ATOM     19  N   UNL     1     -27.726 -11.201 140.671  1.00  0.00    -0.244 NA
ATOM     20  C   UNL     1     -29.331 -10.989 145.574  1.00  0.00     0.255 A 
ATOM     21  C   UNL     1     -30.325  -8.926 141.560  1.00  0.00     0.203 C 
ATOM     22  N   UNL     1     -29.275 -14.832 148.422  1.00  0.00    -0.379 N 
ATOM     23  C   UNL     1     -27.276 -17.414 149.785  1.00  0.00     0.006 A 
ATOM     24  N   UNL     1     -30.386  -8.882 142.955  1.00  0.00    -0.319 N 
ATOM     25  N   UNL     1     -29.506 -11.135 146.869  1.00  0.00    -0.135 NA
ATOM     26  C   UNL     1     -28.722 -12.905 146.941  1.00  0.00     0.104 A 
ATOM     27  N   UNL     1     -29.086 -12.050 147.595  1.00  0.00    -0.271 N 
ATOM     28  C   UNL     1     -29.137 -16.082 148.879  1.00  0.00     0.149 C 
ATOM     29  C   UNL     1     -25.130 -17.500 148.912  1.00  0.00     0.001 A 
ATOM     30  C   UNL     1     -26.002 -17.746 149.993  1.00  0.00     0.000 A 
ATOM     31  C   UNL     1     -31.285  -8.070 143.572  1.00  0.00     0.153 C 
ATOM     32  H   UNL     1    -120.058  90.497 194.774  1.00  0.00     0.160 HD
ATOM     33  H   UNL     1    -120.058  90.497 194.774  1.00  0.00     0.190 HD
ENDROOT
TORSDOF 0
ENDMDL
MODEL 10
REMARK VINA RESULT:      -8.7      3.976      7.396
REMARK SMILES CN1C=NC2=NCn3cc4c5c([nH]nc6nc1c2c3-n-6-5)C1=C(C4)c2ccccc2CN1
REMARK SMILES IDX 9 1 10 2 23 3 11 4 22 5 8 6 7 7 19 8 21 9 20 10 18 11 17 12
REMARK SMILES IDX 24 13 16 14 5 15 29 16 4 17 25 18 6 19 15 20 3 21 31 22
REMARK SMILES IDX 28 23 2 24 14 25 12 26 13 27 30 28 26 29 27 30 1 31
REMARK H PARENT 31 32 13 33
REMARK Flexibility Score: inf
ROOT
ATOM      1  C   UNL     1     -29.451 -12.524 147.405  1.00  0.00     0.095 A 
ATOM      2  C   UNL     1     -28.779 -13.537 147.549  1.00  0.00    -0.001 A 
ATOM      3  C   UNL     1     -27.579 -13.818 146.897  1.00  0.00     0.077 C 
ATOM      4  C   UNL     1     -29.149 -14.698 148.427  1.00  0.00     0.083 A 
ATOM      5  C   UNL     1     -27.130 -15.029 146.430  1.00  0.00    -0.010 C 
ATOM      6  N   UNL     1     -30.716 -12.359 148.150  1.00  0.00    -0.313 N 
ATOM      7  C   UNL     1     -31.437 -11.285 148.227  1.00  0.00     0.269 C 
ATOM      8  C   UNL     1     -31.001 -13.484 148.847  1.00  0.00     0.136 A 
ATOM      9  C   UNL     1     -27.867 -16.134 147.043  1.00  0.00     0.066 C 
ATOM     10  N   UNL     1     -30.288 -14.604 149.112  1.00  0.00    -0.260 N 
ATOM     11  C   UNL     1     -32.131 -13.525 149.720  1.00  0.00     0.104 A 
ATOM     12  C   UNL     1     -32.387 -14.551 150.581  1.00  0.00     0.152 A 
ATOM     13  C   UNL     1     -25.959 -15.247 145.662  1.00  0.00    -0.015 A 
ATOM     14  N   UNL     1     -31.544 -15.608 150.723  1.00  0.00    -0.192 NA
ATOM     15  C   UNL     1     -33.218 -12.445 149.760  1.00  0.00     0.165 C 
ATOM     16  C   UNL     1     -25.763 -16.645 145.302  1.00  0.00    -0.021 A 
ATOM     17  N   UNL     1     -34.301 -12.540 150.398  1.00  0.00    -0.219 NA
ATOM     18  C   UNL     1     -25.012 -14.375 145.438  1.00  0.00     0.009 A 
ATOM     19  N   UNL     1     -33.000 -11.213 149.134  1.00  0.00    -0.244 NA
ATOM     20  C   UNL     1     -30.456 -15.625 149.992  1.00  0.00     0.255 A 
ATOM     21  C   UNL     1     -34.514 -13.738 151.147  1.00  0.00     0.203 C 
ATOM     22  N   UNL     1     -27.454 -17.481 146.764  1.00  0.00    -0.379 N 
ATOM     23  C   UNL     1     -24.592 -16.883 144.771  1.00  0.00     0.006 A 
ATOM     24  N   UNL     1     -33.535 -14.693 151.429  1.00  0.00    -0.319 N 
ATOM     25  N   UNL     1     -29.581 -16.603 150.055  1.00  0.00    -0.135 NA
ATOM     26  C   UNL     1     -28.628 -16.075 148.454  1.00  0.00     0.104 A 
ATOM     27  N   UNL     1     -28.572 -16.768 149.353  1.00  0.00    -0.271 N 
ATOM     28  C   UNL     1     -26.746 -17.689 145.648  1.00  0.00     0.149 C 
ATOM     29  C   UNL     1     -23.849 -14.687 144.831  1.00  0.00     0.001 A 
ATOM     30  C   UNL     1     -23.551 -16.056 144.662  1.00  0.00     0.000 A 
ATOM     31  C   UNL     1     -33.837 -15.768 152.205  1.00  0.00     0.153 C 
ATOM     32  H   UNL     1     -74.951-115.376 244.972  1.00  0.00     0.160 HD
ATOM     33  H   UNL     1     -74.951-115.376 244.972  1.00  0.00     0.190 HD
ENDROOT
TORSDOF 0
ENDMDL
