MODEL 1
REMARK VINA RESULT:     -12.5      0.000      0.000
REMARK SMILES CN1C(=O)N2C3=Nc4nc(N)c5ccccc5c4CC3=CN3C=CC4=CC=CC1C4=C32
REMARK SMILES IDX 21 1 20 2 19 3 6 4 18 5 22 6 23 7 31 8 8 9 5 10 30 11 29 12
REMARK SMILES IDX 3 13 25 14 2 15 1 16 24 17 17 18 9 19 16 20 10 21 7 22 15 23
REMARK SMILES IDX 26 24 14 25 13 26 28 27 12 28 4 29 27 30 11 31
REMARK H PARENT 11 32 11 33
REMARK Flexibility Score: inf
ROOT
ATOM      1  C   UNL     1     -29.595 -10.122 144.497  1.00  0.00     0.100 C 
ATOM      2  C   UNL     1     -29.120 -11.251 144.479  1.00  0.00     0.017 C 
ATOM      3  C   UNL     1     -29.108 -12.147 145.546  1.00  0.00     0.081 C 
ATOM      4  C   UNL     1     -28.413 -11.868 143.306  1.00  0.00     0.150 C 
ATOM      5  C   UNL     1     -28.119 -13.033 145.901  1.00  0.00     0.009 A 
ATOM      6  N   UNL     1     -29.527  -9.268 143.295  1.00  0.00    -0.309 N 
ATOM      7  C   UNL     1     -30.127  -8.132 143.115  1.00  0.00     0.093 C 
ATOM      8  C   UNL     1     -28.806  -9.877 142.325  1.00  0.00     0.133 C 
ATOM      9  C   UNL     1     -27.192 -13.255 144.790  1.00  0.00     0.160 A 
ATOM     10  N   UNL     1     -28.314 -11.132 142.200  1.00  0.00    -0.230 N 
ATOM     11  C   UNL     1     -28.683  -9.279 141.033  1.00  0.00     0.028 C 
ATOM     12  C   UNL     1     -28.125  -9.904 139.958  1.00  0.00     0.144 C 
ATOM     13  C   UNL     1     -27.685 -11.704 141.136  1.00  0.00     0.332 C 
ATOM     14  C   UNL     1     -29.214  -7.803 140.735  1.00  0.00    -0.015 C 
ATOM     15  N   UNL     1     -27.739 -11.069 140.034  1.00  0.00    -0.316 N 
ATOM     16  C   UNL     1     -27.318 -11.857 138.841  1.00  0.00     0.149 C 
ATOM     17  C   UNL     1     -29.925  -7.415 141.927  1.00  0.00     0.027 C 
ATOM     18  C   UNL     1     -28.194 -14.092 146.876  1.00  0.00    -0.007 A 
ATOM     19  N   UNL     1     -26.148 -14.221 144.958  1.00  0.00    -0.211 NA
ATOM     20  C   UNL     1     -29.227 -14.069 147.838  1.00  0.00     0.009 A 
ATOM     21  C   UNL     1     -26.099 -14.904 146.097  1.00  0.00     0.133 A 
ATOM     22  N   UNL     1     -27.499 -12.948 143.514  1.00  0.00    -0.210 NA
ATOM     23  C   UNL     1     -29.278 -15.205 148.631  1.00  0.00     0.001 A 
ATOM     24  C   UNL     1     -28.907  -7.165 139.694  1.00  0.00     0.008 C 
ATOM     25  C   UNL     1     -28.345 -16.166 148.675  1.00  0.00     0.001 A 
ATOM     26  C   UNL     1     -27.489 -16.342 147.806  1.00  0.00     0.012 A 
ATOM     27  C   UNL     1     -27.938  -9.188 138.744  1.00  0.00     0.003 C 
ATOM     28  C   UNL     1     -27.241 -15.028 146.921  1.00  0.00     0.024 A 
ATOM     29  O   UNL     1     -27.269 -13.003 141.110  1.00  0.00    -0.247 OA
ATOM     30  C   UNL     1     -28.235  -7.833 138.554  1.00  0.00    -0.001 C 
ENDROOT
BRANCH  21  31
ATOM     31  N   UNL     1     -25.036 -15.654 146.346  1.00  0.00    -0.383 N 
ATOM     32  H   UNL     1       0.612 -98.640  27.829  1.00  0.00     0.158 HD
ATOM     33  H   UNL     1       0.612 -98.640  27.829  1.00  0.00     0.158 HD
ENDBRANCH  21  31
TORSDOF 1
ENDMDL
MODEL 2
REMARK VINA RESULT:     -12.4      1.117      1.480
REMARK SMILES CN1C(=O)N2C3=Nc4nc(N)c5ccccc5c4CC3=CN3C=CC4=CC=CC1C4=C32
REMARK SMILES IDX 21 1 20 2 19 3 6 4 18 5 22 6 23 7 31 8 8 9 5 10 30 11 29 12
REMARK SMILES IDX 3 13 25 14 2 15 1 16 24 17 17 18 9 19 16 20 10 21 7 22 15 23
REMARK SMILES IDX 26 24 14 25 13 26 28 27 12 28 4 29 27 30 11 31
REMARK H PARENT 11 32 11 33
REMARK Flexibility Score: inf
ROOT
ATOM      1  C   UNL     1     -28.621 -10.960 144.716  1.00  0.00     0.100 C 
ATOM      2  C   UNL     1     -28.090 -12.035 144.466  1.00  0.00     0.017 C 
ATOM      3  C   UNL     1     -27.768 -13.021 145.397  1.00  0.00     0.081 C 
ATOM      4  C   UNL     1     -27.638 -12.474 143.103  1.00  0.00     0.150 C 
ATOM      5  C   UNL     1     -26.667 -13.842 145.419  1.00  0.00     0.009 A 
ATOM      6  N   UNL     1     -28.894  -9.996 143.632  1.00  0.00    -0.309 N 
ATOM      7  C   UNL     1     -29.593  -8.907 143.719  1.00  0.00     0.093 C 
ATOM      8  C   UNL     1     -28.382 -10.446 142.463  1.00  0.00     0.133 C 
ATOM      9  C   UNL     1     -26.013 -13.877 144.110  1.00  0.00     0.160 A 
ATOM     10  N   UNL     1     -27.850 -11.634 142.091  1.00  0.00    -0.230 N 
ATOM     11  C   UNL     1     -28.605  -9.722 141.251  1.00  0.00     0.028 C 
ATOM     12  C   UNL     1     -28.273 -10.193 140.015  1.00  0.00     0.144 C 
ATOM     13  C   UNL     1     -27.451 -12.046 140.856  1.00  0.00     0.332 C 
ATOM     14  C   UNL     1     -29.287  -8.279 141.245  1.00  0.00    -0.015 C 
ATOM     15  N   UNL     1     -27.804 -11.320 139.872  1.00  0.00    -0.316 N 
ATOM     16  C   UNL     1     -27.623 -11.954 138.535  1.00  0.00     0.149 C 
ATOM     17  C   UNL     1     -29.724  -8.068 142.603  1.00  0.00     0.027 C 
ATOM     18  C   UNL     1     -26.441 -14.990 146.263  1.00  0.00    -0.007 A 
ATOM     19  N   UNL     1     -24.897 -14.755 143.929  1.00  0.00    -0.211 NA
ATOM     20  C   UNL     1     -27.219 -15.149 147.429  1.00  0.00     0.009 A 
ATOM     21  C   UNL     1     -24.537 -15.533 144.945  1.00  0.00     0.133 A 
ATOM     22  N   UNL     1     -26.631 -13.482 142.978  1.00  0.00    -0.210 NA
ATOM     23  C   UNL     1     -27.007 -16.353 148.083  1.00  0.00     0.001 A 
ATOM     24  C   UNL     1     -29.276  -7.522 140.239  1.00  0.00     0.008 C 
ATOM     25  C   UNL     1     -26.028 -17.226 147.808  1.00  0.00     0.001 A 
ATOM     26  C   UNL     1     -25.390 -17.242 146.754  1.00  0.00     0.012 A 
ATOM     27  C   UNL     1     -28.424  -9.354 138.876  1.00  0.00     0.003 C 
ATOM     28  C   UNL     1     -25.444 -15.836 145.987  1.00  0.00     0.024 A 
ATOM     29  O   UNL     1     -26.967 -13.294 140.594  1.00  0.00    -0.247 OA
ATOM     30  C   UNL     1     -28.847  -8.019 138.910  1.00  0.00    -0.001 C 
ENDROOT
BRANCH  21  31
ATOM     31  N   UNL     1     -23.398 -16.204 144.862  1.00  0.00    -0.383 N 
ATOM     32  H   UNL     1     -23.737-119.170 249.690  1.00  0.00     0.158 HD
ATOM     33  H   UNL     1     -23.737-119.170 249.690  1.00  0.00     0.158 HD
ENDBRANCH  21  31
TORSDOF 1
ENDMDL
MODEL 3
REMARK VINA RESULT:     -11.9      1.339      7.853
REMARK SMILES CN1C(=O)N2C3=Nc4nc(N)c5ccccc5c4CC3=CN3C=CC4=CC=CC1C4=C32
REMARK SMILES IDX 21 1 20 2 19 3 6 4 18 5 22 6 23 7 31 8 8 9 5 10 30 11 29 12
REMARK SMILES IDX 3 13 25 14 2 15 1 16 24 17 17 18 9 19 16 20 10 21 7 22 15 23
REMARK SMILES IDX 26 24 14 25 13 26 28 27 12 28 4 29 27 30 11 31
REMARK H PARENT 11 32 11 33
REMARK Flexibility Score: inf
ROOT
ATOM      1  C   UNL     1     -29.694 -11.866 145.653  1.00  0.00     0.100 C 
ATOM      2  C   UNL     1     -28.957 -11.667 144.696  1.00  0.00     0.017 C 
ATOM      3  C   UNL     1     -29.131 -10.684 143.723  1.00  0.00     0.081 C 
ATOM      4  C   UNL     1     -27.741 -12.484 144.362  1.00  0.00     0.150 C 
ATOM      5  C   UNL     1     -28.874 -10.766 142.376  1.00  0.00     0.009 A 
ATOM      6  N   UNL     1     -29.400 -12.957 146.604  1.00  0.00    -0.309 N 
ATOM      7  C   UNL     1     -29.987 -13.176 147.739  1.00  0.00     0.093 C 
ATOM      8  C   UNL     1     -28.339 -13.680 146.176  1.00  0.00     0.133 C 
ATOM      9  C   UNL     1     -27.990 -11.894 142.079  1.00  0.00     0.160 A 
ATOM     10  N   UNL     1     -27.439 -13.489 145.183  1.00  0.00    -0.230 N 
ATOM     11  C   UNL     1     -27.810 -14.733 146.984  1.00  0.00     0.028 C 
ATOM     12  C   UNL     1     -26.648 -15.391 146.707  1.00  0.00     0.144 C 
ATOM     13  C   UNL     1     -26.327 -14.215 144.881  1.00  0.00     0.332 C 
ATOM     14  C   UNL     1     -28.546 -15.227 148.311  1.00  0.00    -0.015 C 
ATOM     15  N   UNL     1     -25.947 -15.062 145.752  1.00  0.00    -0.316 N 
ATOM     16  C   UNL     1     -24.576 -15.606 145.534  1.00  0.00     0.149 C 
ATOM     17  C   UNL     1     -29.621 -14.287 148.513  1.00  0.00     0.027 C 
ATOM     18  C   UNL     1     -28.864  -9.691 141.415  1.00  0.00    -0.007 A 
ATOM     19  N   UNL     1     -27.547 -12.074 140.730  1.00  0.00    -0.211 NA
ATOM     20  C   UNL     1     -29.495  -8.471 141.740  1.00  0.00     0.009 A 
ATOM     21  C   UNL     1     -27.922 -11.182 139.819  1.00  0.00     0.133 A 
ATOM     22  N   UNL     1     -27.240 -12.497 143.023  1.00  0.00    -0.210 NA
ATOM     23  C   UNL     1     -29.302  -7.473 140.798  1.00  0.00     0.001 A 
ATOM     24  C   UNL     1     -28.244 -16.297 148.902  1.00  0.00     0.008 C 
ATOM     25  C   UNL     1     -28.761  -7.643 139.584  1.00  0.00     0.001 A 
ATOM     26  C   UNL     1     -28.080  -8.616 139.259  1.00  0.00     0.012 A 
ATOM     27  C   UNL     1     -26.260 -16.504 147.502  1.00  0.00     0.003 C 
ATOM     28  C   UNL     1     -28.343  -9.886 140.199  1.00  0.00     0.024 A 
ATOM     29  O   UNL     1     -25.464 -13.897 143.874  1.00  0.00    -0.247 OA
ATOM     30  C   UNL     1     -27.015 -17.047 148.550  1.00  0.00    -0.001 C 
ENDROOT
BRANCH  21  31
ATOM     31  N   UNL     1     -27.685 -11.436 138.541  1.00  0.00    -0.383 N 
ATOM     32  H   UNL     1      -8.110 116.856  69.631  1.00  0.00     0.158 HD
ATOM     33  H   UNL     1      -8.110 116.856  69.631  1.00  0.00     0.158 HD
ENDBRANCH  21  31
TORSDOF 1
ENDMDL
MODEL 4
REMARK VINA RESULT:     -11.2      4.698      7.249
REMARK SMILES CN1C(=O)N2C3=Nc4nc(N)c5ccccc5c4CC3=CN3C=CC4=CC=CC1C4=C32
REMARK SMILES IDX 21 1 20 2 19 3 6 4 18 5 22 6 23 7 31 8 8 9 5 10 30 11 29 12
REMARK SMILES IDX 3 13 25 14 2 15 1 16 24 17 17 18 9 19 16 20 10 21 7 22 15 23
REMARK SMILES IDX 26 24 14 25 13 26 28 27 12 28 4 29 27 30 11 31
REMARK H PARENT 11 32 11 33
REMARK Flexibility Score: inf
ROOT
ATOM      1  C   UNL     1     -29.512 -12.620 147.905  1.00  0.00     0.100 C 
ATOM      2  C   UNL     1     -29.982 -13.650 148.373  1.00  0.00     0.017 C 
ATOM      3  C   UNL     1     -31.082 -13.728 149.225  1.00  0.00     0.081 C 
ATOM      4  C   UNL     1     -29.426 -15.027 148.153  1.00  0.00     0.150 C 
ATOM      5  C   UNL     1     -31.275 -14.578 150.288  1.00  0.00     0.009 A 
ATOM      6  N   UNL     1     -28.329 -12.677 147.023  1.00  0.00    -0.309 N 
ATOM      7  C   UNL     1     -27.830 -11.703 146.329  1.00  0.00     0.093 C 
ATOM      8  C   UNL     1     -27.857 -13.944 146.951  1.00  0.00     0.133 C 
ATOM      9  C   UNL     1     -30.360 -15.718 150.220  1.00  0.00     0.160 A 
ATOM     10  N   UNL     1     -28.350 -15.132 147.374  1.00  0.00    -0.230 N 
ATOM     11  C   UNL     1     -26.770 -14.261 146.080  1.00  0.00     0.028 C 
ATOM     12  C   UNL     1     -26.351 -15.533 145.821  1.00  0.00     0.144 C 
ATOM     13  C   UNL     1     -27.861 -16.386 147.168  1.00  0.00     0.332 C 
ATOM     14  C   UNL     1     -25.949 -13.129 145.311  1.00  0.00    -0.015 C 
ATOM     15  N   UNL     1     -26.941 -16.502 146.295  1.00  0.00    -0.316 N 
ATOM     16  C   UNL     1     -26.654 -17.903 145.877  1.00  0.00     0.149 C 
ATOM     17  C   UNL     1     -26.669 -11.907 145.569  1.00  0.00     0.027 C 
ATOM     18  C   UNL     1     -32.489 -14.793 151.035  1.00  0.00    -0.007 A 
ATOM     19  N   UNL     1     -30.484 -16.751 151.204  1.00  0.00    -0.211 NA
ATOM     20  C   UNL     1     -33.526 -13.839 150.950  1.00  0.00     0.009 A 
ATOM     21  C   UNL     1     -31.456 -16.648 152.105  1.00  0.00     0.133 A 
ATOM     22  N   UNL     1     -29.720 -16.070 149.086  1.00  0.00    -0.210 NA
ATOM     23  C   UNL     1     -34.691 -14.219 151.599  1.00  0.00     0.001 A 
ATOM     24  C   UNL     1     -24.850 -13.351 144.738  1.00  0.00     0.008 C 
ATOM     25  C   UNL     1     -34.817 -15.273 152.417  1.00  0.00     0.001 A 
ATOM     26  C   UNL     1     -34.028 -16.218 152.457  1.00  0.00     0.012 A 
ATOM     27  C   UNL     1     -25.186 -15.746 145.034  1.00  0.00     0.003 C 
ATOM     28  C   UNL     1     -32.588 -15.835 151.866  1.00  0.00     0.024 A 
ATOM     29  O   UNL     1     -28.474 -17.521 147.611  1.00  0.00    -0.247 OA
ATOM     30  C   UNL     1     -24.364 -14.735 144.522  1.00  0.00    -0.001 C 
ENDROOT
BRANCH  21  31
ATOM     31  N   UNL     1     -31.466 -17.485 153.131  1.00  0.00    -0.383 N 
ATOM     32  H   UNL     1    -163.659  -9.639 216.804  1.00  0.00     0.158 HD
ATOM     33  H   UNL     1    -163.659  -9.639 216.804  1.00  0.00     0.158 HD
ENDBRANCH  21  31
TORSDOF 1
ENDMDL
MODEL 5
REMARK VINA RESULT:     -11.0      2.388      8.946
REMARK SMILES CN1C(=O)N2C3=Nc4nc(N)c5ccccc5c4CC3=CN3C=CC4=CC=CC1C4=C32
REMARK SMILES IDX 21 1 20 2 19 3 6 4 18 5 22 6 23 7 31 8 8 9 5 10 30 11 29 12
REMARK SMILES IDX 3 13 25 14 2 15 1 16 24 17 17 18 9 19 16 20 10 21 7 22 15 23
REMARK SMILES IDX 26 24 14 25 13 26 28 27 12 28 4 29 27 30 11 31
REMARK H PARENT 11 32 11 33
REMARK Flexibility Score: inf
ROOT
ATOM      1  C   UNL     1     -25.377 -14.501 145.211  1.00  0.00     0.100 C 
ATOM      2  C   UNL     1     -26.485 -13.998 145.067  1.00  0.00     0.017 C 
ATOM      3  C   UNL     1     -26.850 -13.107 144.060  1.00  0.00     0.081 C 
ATOM      4  C   UNL     1     -27.653 -14.213 145.986  1.00  0.00     0.150 C 
ATOM      5  C   UNL     1     -27.690 -12.024 144.147  1.00  0.00     0.009 A 
ATOM      6  N   UNL     1     -25.120 -15.422 146.336  1.00  0.00    -0.309 N 
ATOM      7  C   UNL     1     -24.063 -16.151 146.516  1.00  0.00     0.093 C 
ATOM      8  C   UNL     1     -26.201 -15.487 147.147  1.00  0.00     0.133 C 
ATOM      9  C   UNL     1     -28.525 -12.103 145.347  1.00  0.00     0.160 A 
ATOM     10  N   UNL     1     -27.468 -15.026 147.025  1.00  0.00    -0.230 N 
ATOM     11  C   UNL     1     -26.220 -16.390 148.254  1.00  0.00     0.028 C 
ATOM     12  C   UNL     1     -27.326 -16.640 149.011  1.00  0.00     0.144 C 
ATOM     13  C   UNL     1     -28.537 -15.227 147.846  1.00  0.00     0.332 C 
ATOM     14  C   UNL     1     -24.922 -17.208 148.696  1.00  0.00    -0.015 C 
ATOM     15  N   UNL     1     -28.410 -16.129 148.735  1.00  0.00    -0.316 N 
ATOM     16  C   UNL     1     -29.683 -16.532 149.398  1.00  0.00     0.149 C 
ATOM     17  C   UNL     1     -23.948 -16.946 147.666  1.00  0.00     0.027 C 
ATOM     18  C   UNL     1     -28.221 -11.231 143.066  1.00  0.00    -0.007 A 
ATOM     19  N   UNL     1     -29.523 -11.097 145.549  1.00  0.00    -0.211 NA
ATOM     20  C   UNL     1     -27.604 -11.297 141.798  1.00  0.00     0.009 A 
ATOM     21  C   UNL     1     -29.676 -10.165 144.614  1.00  0.00     0.133 A 
ATOM     22  N   UNL     1     -28.711 -13.251 146.028  1.00  0.00    -0.210 NA
ATOM     23  C   UNL     1     -28.282 -10.602 140.809  1.00  0.00     0.001 A 
ATOM     24  C   UNL     1     -24.838 -17.814 149.797  1.00  0.00     0.008 C 
ATOM     25  C   UNL     1     -29.305  -9.760 141.011  1.00  0.00     0.001 A 
ATOM     26  C   UNL     1     -29.985  -9.731 142.038  1.00  0.00     0.012 A 
ATOM     27  C   UNL     1     -27.221 -17.464 150.165  1.00  0.00     0.003 C 
ATOM     28  C   UNL     1     -29.225 -10.379 143.291  1.00  0.00     0.024 A 
ATOM     29  O   UNL     1     -29.787 -14.743 147.594  1.00  0.00    -0.247 OA
ATOM     30  C   UNL     1     -26.032 -18.022 150.651  1.00  0.00    -0.001 C 
ENDROOT
BRANCH  21  31
ATOM     31  N   UNL     1     -30.453  -9.124 144.873  1.00  0.00    -0.383 N 
ATOM     32  H   UNL     1      53.901 111.181 146.264  1.00  0.00     0.158 HD
ATOM     33  H   UNL     1      53.901 111.181 146.264  1.00  0.00     0.158 HD
ENDBRANCH  21  31
TORSDOF 1
ENDMDL
MODEL 6
REMARK VINA RESULT:     -10.9      5.830      9.457
REMARK SMILES CN1C(=O)N2C3=Nc4nc(N)c5ccccc5c4CC3=CN3C=CC4=CC=CC1C4=C32
REMARK SMILES IDX 21 1 20 2 19 3 6 4 18 5 22 6 23 7 31 8 8 9 5 10 30 11 29 12
REMARK SMILES IDX 3 13 25 14 2 15 1 16 24 17 17 18 9 19 16 20 10 21 7 22 15 23
REMARK SMILES IDX 26 24 14 25 13 26 28 27 12 28 4 29 27 30 11 31
REMARK H PARENT 11 32 11 33
REMARK Flexibility Score: inf
ROOT
ATOM      1  C   UNL     1     -30.970 -12.876 148.627  1.00  0.00     0.100 C 
ATOM      2  C   UNL     1     -30.065 -13.698 148.557  1.00  0.00     0.017 C 
ATOM      3  C   UNL     1     -28.972 -13.634 147.695  1.00  0.00     0.081 C 
ATOM      4  C   UNL     1     -29.990 -14.965 149.359  1.00  0.00     0.150 C 
ATOM      5  C   UNL     1     -28.344 -14.666 147.040  1.00  0.00     0.009 A 
ATOM      6  N   UNL     1     -32.082 -13.075 149.578  1.00  0.00    -0.309 N 
ATOM      7  C   UNL     1     -33.008 -12.219 149.880  1.00  0.00     0.093 C 
ATOM      8  C   UNL     1     -31.966 -14.275 150.193  1.00  0.00     0.133 C 
ATOM      9  C   UNL     1     -28.680 -15.954 147.648  1.00  0.00     0.160 A 
ATOM     10  N   UNL     1     -30.976 -15.198 150.224  1.00  0.00    -0.230 N 
ATOM     11  C   UNL     1     -32.879 -14.648 151.227  1.00  0.00     0.028 C 
ATOM     12  C   UNL     1     -32.729 -15.755 152.008  1.00  0.00     0.144 C 
ATOM     13  C   UNL     1     -30.893 -16.342 150.958  1.00  0.00     0.332 C 
ATOM     14  C   UNL     1     -34.169 -13.771 151.568  1.00  0.00    -0.015 C 
ATOM     15  N   UNL     1     -31.742 -16.479 151.897  1.00  0.00    -0.316 N 
ATOM     16  C   UNL     1     -31.431 -17.572 152.862  1.00  0.00     0.149 C 
ATOM     17  C   UNL     1     -34.028 -12.576 150.774  1.00  0.00     0.027 C 
ATOM     18  C   UNL     1     -27.097 -14.620 146.317  1.00  0.00    -0.007 A 
ATOM     19  N   UNL     1     -28.041 -17.132 147.144  1.00  0.00    -0.211 NA
ATOM     20  C   UNL     1     -26.584 -13.371 145.909  1.00  0.00     0.009 A 
ATOM     21  C   UNL     1     -27.137 -16.994 146.180  1.00  0.00     0.133 A 
ATOM     22  N   UNL     1     -29.198 -16.059 148.888  1.00  0.00    -0.210 NA
ATOM     23  C   UNL     1     -25.319 -13.442 145.346  1.00  0.00     0.001 A 
ATOM     24  C   UNL     1     -35.109 -14.192 152.293  1.00  0.00     0.008 C 
ATOM     25  C   UNL     1     -24.683 -14.570 145.001  1.00  0.00     0.001 A 
ATOM     26  C   UNL     1     -24.982 -15.690 145.420  1.00  0.00     0.012 A 
ATOM     27  C   UNL     1     -33.750 -16.110 152.933  1.00  0.00     0.003 C 
ATOM     28  C   UNL     1     -26.490 -15.756 145.959  1.00  0.00     0.024 A 
ATOM     29  O   UNL     1     -29.816 -17.178 150.938  1.00  0.00    -0.247 OA
ATOM     30  C   UNL     1     -34.967 -15.436 153.087  1.00  0.00    -0.001 C 
ENDROOT
BRANCH  21  31
ATOM     31  N   UNL     1     -26.682 -18.080 145.572  1.00  0.00    -0.383 N 
ATOM     32  H   UNL     1      63.304 -87.713 238.549  1.00  0.00     0.158 HD
ATOM     33  H   UNL     1      63.304 -87.713 238.549  1.00  0.00     0.158 HD
ENDBRANCH  21  31
TORSDOF 1
ENDMDL
MODEL 7
REMARK VINA RESULT:     -10.3      1.780      3.455
REMARK SMILES CN1C(=O)N2C3=Nc4nc(N)c5ccccc5c4CC3=CN3C=CC4=CC=CC1C4=C32
REMARK SMILES IDX 21 1 20 2 19 3 6 4 18 5 22 6 23 7 31 8 8 9 5 10 30 11 29 12
REMARK SMILES IDX 3 13 25 14 2 15 1 16 24 17 17 18 9 19 16 20 10 21 7 22 15 23
REMARK SMILES IDX 26 24 14 25 13 26 28 27 12 28 4 29 27 30 11 31
REMARK H PARENT 11 32 11 33
REMARK Flexibility Score: inf
ROOT
ATOM      1  C   UNL     1     -26.789 -13.407 141.596  1.00  0.00     0.100 C 
ATOM      2  C   UNL     1     -26.915 -13.303 142.810  1.00  0.00     0.017 C 
ATOM      3  C   UNL     1     -26.544 -14.261 143.752  1.00  0.00     0.081 C 
ATOM      4  C   UNL     1     -27.542 -12.133 143.513  1.00  0.00     0.150 C 
ATOM      5  C   UNL     1     -27.186 -14.598 144.919  1.00  0.00     0.009 A 
ATOM      6  N   UNL     1     -27.240 -12.318 140.706  1.00  0.00    -0.309 N 
ATOM      7  C   UNL     1     -27.020 -12.215 139.433  1.00  0.00     0.093 C 
ATOM      8  C   UNL     1     -27.859 -11.351 141.423  1.00  0.00     0.133 C 
ATOM      9  C   UNL     1     -28.130 -13.553 145.318  1.00  0.00     0.160 A 
ATOM     10  N   UNL     1     -27.977 -11.129 142.754  1.00  0.00    -0.230 N 
ATOM     11  C   UNL     1     -28.298 -10.149 140.787  1.00  0.00     0.028 C 
ATOM     12  C   UNL     1     -28.771  -9.063 141.461  1.00  0.00     0.144 C 
ATOM     13  C   UNL     1     -28.531 -10.066 143.400  1.00  0.00     0.332 C 
ATOM     14  C   UNL     1     -28.256  -9.973 139.201  1.00  0.00    -0.015 C 
ATOM     15  N   UNL     1     -28.791  -9.041 142.690  1.00  0.00    -0.316 N 
ATOM     16  C   UNL     1     -29.099  -7.808 143.469  1.00  0.00     0.149 C 
ATOM     17  C   UNL     1     -27.556 -11.136 138.715  1.00  0.00     0.027 C 
ATOM     18  C   UNL     1     -26.695 -15.439 145.982  1.00  0.00    -0.007 A 
ATOM     19  N   UNL     1     -28.822 -13.701 146.563  1.00  0.00    -0.211 NA
ATOM     20  C   UNL     1     -25.610 -16.305 145.729  1.00  0.00     0.009 A 
ATOM     21  C   UNL     1     -28.540 -14.756 147.319  1.00  0.00     0.133 A 
ATOM     22  N   UNL     1     -28.074 -12.298 144.830  1.00  0.00    -0.210 NA
ATOM     23  C   UNL     1     -25.141 -16.960 146.858  1.00  0.00     0.001 A 
ATOM     24  C   UNL     1     -28.853  -9.040 138.601  1.00  0.00     0.008 C 
ATOM     25  C   UNL     1     -25.743 -16.975 148.055  1.00  0.00     0.001 A 
ATOM     26  C   UNL     1     -26.605 -16.169 148.407  1.00  0.00     0.012 A 
ATOM     27  C   UNL     1     -29.296  -7.956 140.738  1.00  0.00     0.003 C 
ATOM     28  C   UNL     1     -27.323 -15.461 147.162  1.00  0.00     0.024 A 
ATOM     29  O   UNL     1     -28.553  -9.931 144.757  1.00  0.00    -0.247 OA
ATOM     30  C   UNL     1     -29.428  -7.895 139.346  1.00  0.00    -0.001 C 
ENDROOT
BRANCH  21  31
ATOM     31  N   UNL     1     -29.303 -15.010 148.371  1.00  0.00    -0.383 N 
ATOM     32  H   UNL     1      56.342 -70.109 254.295  1.00  0.00     0.158 HD
ATOM     33  H   UNL     1      56.342 -70.109 254.295  1.00  0.00     0.158 HD
ENDBRANCH  21  31
TORSDOF 1
ENDMDL
MODEL 8
REMARK VINA RESULT:      -9.5      5.835      8.832
REMARK SMILES CN1C(=O)N2C3=Nc4nc(N)c5ccccc5c4CC3=CN3C=CC4=CC=CC1C4=C32
REMARK SMILES IDX 21 1 20 2 19 3 6 4 18 5 22 6 23 7 31 8 8 9 5 10 30 11 29 12
REMARK SMILES IDX 3 13 25 14 2 15 1 16 24 17 17 18 9 19 16 20 10 21 7 22 15 23
REMARK SMILES IDX 26 24 14 25 13 26 28 27 12 28 4 29 27 30 11 31
REMARK H PARENT 11 32 11 33
REMARK Flexibility Score: inf
ROOT
ATOM      1  C   UNL     1     -29.167 -16.936 149.509  1.00  0.00     0.100 C 
ATOM      2  C   UNL     1     -28.700 -16.234 148.621  1.00  0.00     0.017 C 
ATOM      3  C   UNL     1     -27.609 -16.556 147.816  1.00  0.00     0.081 C 
ATOM      4  C   UNL     1     -29.191 -14.860 148.263  1.00  0.00     0.150 C 
ATOM      5  C   UNL     1     -26.623 -15.722 147.348  1.00  0.00     0.009 A 
ATOM      6  N   UNL     1     -30.322 -16.464 150.299  1.00  0.00    -0.309 N 
ATOM      7  C   UNL     1     -31.020 -17.158 151.144  1.00  0.00     0.093 C 
ATOM      8  C   UNL     1     -30.638 -15.193 149.958  1.00  0.00     0.133 C 
ATOM      9  C   UNL     1     -27.035 -14.321 147.438  1.00  0.00     0.160 A 
ATOM     10  N   UNL     1     -30.224 -14.383 148.955  1.00  0.00    -0.230 N 
ATOM     11  C   UNL     1     -31.784 -14.557 150.526  1.00  0.00     0.028 C 
ATOM     12  C   UNL     1     -32.266 -13.351 150.110  1.00  0.00     0.144 C 
ATOM     13  C   UNL     1     -30.672 -13.143 148.614  1.00  0.00     0.332 C 
ATOM     14  C   UNL     1     -32.619 -15.227 151.710  1.00  0.00    -0.015 C 
ATOM     15  N   UNL     1     -31.757 -12.760 149.159  1.00  0.00    -0.316 N 
ATOM     16  C   UNL     1     -32.373 -11.553 148.539  1.00  0.00     0.149 C 
ATOM     17  C   UNL     1     -32.065 -16.550 151.854  1.00  0.00     0.027 C 
ATOM     18  C   UNL     1     -25.617 -16.018 146.357  1.00  0.00    -0.007 A 
ATOM     19  N   UNL     1     -26.160 -13.319 146.909  1.00  0.00    -0.211 NA
ATOM     20  C   UNL     1     -25.340 -17.364 146.039  1.00  0.00     0.009 A 
ATOM     21  C   UNL     1     -25.036 -13.712 146.318  1.00  0.00     0.133 A 
ATOM     22  N   UNL     1     -28.323 -13.950 147.582  1.00  0.00    -0.210 NA
ATOM     23  C   UNL     1     -24.458 -17.519 144.981  1.00  0.00     0.001 A 
ATOM     24  C   UNL     1     -33.471 -14.594 152.387  1.00  0.00     0.008 C 
ATOM     25  C   UNL     1     -23.744 -16.538 144.413  1.00  0.00     0.001 A 
ATOM     26  C   UNL     1     -24.000 -15.338 144.528  1.00  0.00     0.012 A 
ATOM     27  C   UNL     1     -33.341 -12.740 150.812  1.00  0.00     0.003 C 
ATOM     28  C   UNL     1     -24.897 -15.028 145.820  1.00  0.00     0.024 A 
ATOM     29  O   UNL     1     -30.204 -12.435 147.547  1.00  0.00    -0.247 OA
ATOM     30  C   UNL     1     -33.941 -13.252 151.969  1.00  0.00    -0.001 C 
ENDROOT
BRANCH  21  31
ATOM     31  N   UNL     1     -24.130 -12.800 145.999  1.00  0.00    -0.383 N 
ATOM     32  H   UNL     1     -77.606 119.021 182.800  1.00  0.00     0.158 HD
ATOM     33  H   UNL     1     -77.606 119.021 182.800  1.00  0.00     0.158 HD
ENDBRANCH  21  31
TORSDOF 1
ENDMDL
MODEL 9
REMARK VINA RESULT:      -9.5      4.904      9.354
REMARK SMILES CN1C(=O)N2C3=Nc4nc(N)c5ccccc5c4CC3=CN3C=CC4=CC=CC1C4=C32
REMARK SMILES IDX 21 1 20 2 19 3 6 4 18 5 22 6 23 7 31 8 8 9 5 10 30 11 29 12
REMARK SMILES IDX 3 13 25 14 2 15 1 16 24 17 17 18 9 19 16 20 10 21 7 22 15 23
REMARK SMILES IDX 26 24 14 25 13 26 28 27 12 28 4 29 27 30 11 31
REMARK H PARENT 11 32 11 33
REMARK Flexibility Score: inf
ROOT
ATOM      1  C   UNL     1     -29.750 -16.393 149.551  1.00  0.00     0.100 C 
ATOM      2  C   UNL     1     -29.529 -15.535 148.705  1.00  0.00     0.017 C 
ATOM      3  C   UNL     1     -28.509 -15.569 147.757  1.00  0.00     0.081 C 
ATOM      4  C   UNL     1     -30.295 -14.251 148.563  1.00  0.00     0.150 C 
ATOM      5  C   UNL     1     -27.752 -14.525 147.285  1.00  0.00     0.009 A 
ATOM      6  N   UNL     1     -30.860 -16.223 150.510  1.00  0.00    -0.309 N 
ATOM      7  C   UNL     1     -31.312 -17.111 151.339  1.00  0.00     0.093 C 
ATOM      8  C   UNL     1     -31.434 -15.008 150.354  1.00  0.00     0.133 C 
ATOM      9  C   UNL     1     -28.389 -13.240 147.580  1.00  0.00     0.160 A 
ATOM     10  N   UNL     1     -31.300 -14.043 149.413  1.00  0.00    -0.230 N 
ATOM     11  C   UNL     1     -32.594 -14.654 151.111  1.00  0.00     0.028 C 
ATOM     12  C   UNL     1     -33.328 -13.527 150.891  1.00  0.00     0.144 C 
ATOM     13  C   UNL     1     -31.998 -12.883 149.267  1.00  0.00     0.332 C 
ATOM     14  C   UNL     1     -33.141 -15.578 152.292  1.00  0.00    -0.015 C 
ATOM     15  N   UNL     1     -33.056 -12.765 149.966  1.00  0.00    -0.316 N 
ATOM     16  C   UNL     1     -33.947 -11.641 149.558  1.00  0.00     0.149 C 
ATOM     17  C   UNL     1     -32.350 -16.781 152.222  1.00  0.00     0.027 C 
ATOM     18  C   UNL     1     -26.843 -14.531 146.165  1.00  0.00    -0.007 A 
ATOM     19  N   UNL     1     -27.777 -12.046 147.079  1.00  0.00    -0.211 NA
ATOM     20  C   UNL     1     -26.376 -15.766 145.665  1.00  0.00     0.009 A 
ATOM     21  C   UNL     1     -26.686 -12.164 146.330  1.00  0.00     0.133 A 
ATOM     22  N   UNL     1     -29.693 -13.134 147.903  1.00  0.00    -0.210 NA
ATOM     23  C   UNL     1     -25.622 -15.652 144.508  1.00  0.00     0.001 A 
ATOM     24  C   UNL     1     -33.999 -15.183 153.125  1.00  0.00     0.008 C 
ATOM     25  C   UNL     1     -25.169 -14.505 143.984  1.00  0.00     0.001 A 
ATOM     26  C   UNL     1     -25.615 -13.391 144.264  1.00  0.00     0.012 A 
ATOM     27  C   UNL     1     -34.397 -13.198 151.770  1.00  0.00     0.003 C 
ATOM     28  C   UNL     1     -26.382 -13.378 145.671  1.00  0.00     0.024 A 
ATOM     29  O   UNL     1     -31.800 -12.003 148.245  1.00  0.00    -0.247 OA
ATOM     30  C   UNL     1     -34.746 -13.920 152.918  1.00  0.00    -0.001 C 
ENDROOT
BRANCH  21  31
ATOM     31  N   UNL     1     -26.001 -11.072 146.024  1.00  0.00    -0.383 N 
ATOM     32  H   UNL     1     108.745 -24.500 203.068  1.00  0.00     0.158 HD
ATOM     33  H   UNL     1     108.745 -24.500 203.068  1.00  0.00     0.158 HD
ENDBRANCH  21  31
TORSDOF 1
ENDMDL
MODEL 10
REMARK VINA RESULT:      -9.4      4.704      7.601
REMARK SMILES CN1C(=O)N2C3=Nc4nc(N)c5ccccc5c4CC3=CN3C=CC4=CC=CC1C4=C32
REMARK SMILES IDX 21 1 20 2 19 3 6 4 18 5 22 6 23 7 31 8 8 9 5 10 30 11 29 12
REMARK SMILES IDX 3 13 25 14 2 15 1 16 24 17 17 18 9 19 16 20 10 21 7 22 15 23
REMARK SMILES IDX 26 24 14 25 13 26 28 27 12 28 4 29 27 30 11 31
REMARK H PARENT 11 32 11 33
REMARK Flexibility Score: inf
ROOT
ATOM      1  C   UNL     1     -28.642 -16.652 148.314  1.00  0.00     0.100 C 
ATOM      2  C   UNL     1     -29.221 -15.645 148.703  1.00  0.00     0.017 C 
ATOM      3  C   UNL     1     -30.272 -15.613 149.618  1.00  0.00     0.081 C 
ATOM      4  C   UNL     1     -28.936 -14.250 148.226  1.00  0.00     0.150 C 
ATOM      5  C   UNL     1     -31.375 -14.793 149.615  1.00  0.00     0.009 A 
ATOM      6  N   UNL     1     -27.549 -16.546 147.327  1.00  0.00    -0.309 N 
ATOM      7  C   UNL     1     -26.744 -17.491 146.955  1.00  0.00     0.093 C 
ATOM      8  C   UNL     1     -27.422 -15.267 146.902  1.00  0.00     0.133 C 
ATOM      9  C   UNL     1     -31.163 -13.631 148.752  1.00  0.00     0.160 A 
ATOM     10  N   UNL     1     -27.966 -14.101 147.324  1.00  0.00    -0.230 N 
ATOM     11  C   UNL     1     -26.366 -14.904 146.011  1.00  0.00     0.028 C 
ATOM     12  C   UNL     1     -26.067 -13.617 145.674  1.00  0.00     0.144 C 
ATOM     13  C   UNL     1     -27.704 -12.831 146.908  1.00  0.00     0.332 C 
ATOM     14  C   UNL     1     -25.421 -15.998 145.335  1.00  0.00    -0.015 C 
ATOM     15  N   UNL     1     -26.673 -12.674 146.178  1.00  0.00    -0.316 N 
ATOM     16  C   UNL     1     -26.246 -11.256 146.004  1.00  0.00     0.149 C 
ATOM     17  C   UNL     1     -25.779 -17.242 145.968  1.00  0.00     0.027 C 
ATOM     18  C   UNL     1     -32.349 -14.625 150.665  1.00  0.00    -0.007 A 
ATOM     19  N   UNL     1     -32.181 -12.625 148.702  1.00  0.00    -0.211 NA
ATOM     20  C   UNL     1     -32.441 -15.601 151.681  1.00  0.00     0.009 A 
ATOM     21  C   UNL     1     -33.250 -12.772 149.478  1.00  0.00     0.133 A 
ATOM     22  N   UNL     1     -29.937 -13.237 148.352  1.00  0.00    -0.210 NA
ATOM     23  C   UNL     1     -33.314 -15.263 152.704  1.00  0.00     0.001 A 
ATOM     24  C   UNL     1     -24.652 -15.736 144.372  1.00  0.00     0.008 C 
ATOM     25  C   UNL     1     -34.170 -14.233 152.688  1.00  0.00     0.001 A 
ATOM     26  C   UNL     1     -34.083 -13.271 151.923  1.00  0.00     0.012 A 
ATOM     27  C   UNL     1     -25.074 -13.357 144.689  1.00  0.00     0.003 C 
ATOM     28  C   UNL     1     -33.213 -13.606 150.620  1.00  0.00     0.024 A 
ATOM     29  O   UNL     1     -28.289 -11.722 147.444  1.00  0.00    -0.247 OA
ATOM     30  C   UNL     1     -24.385 -14.336 143.964  1.00  0.00    -0.001 C 
ENDROOT
BRANCH  21  31
ATOM     31  N   UNL     1     -34.282 -11.960 149.303  1.00  0.00    -0.383 N 
ATOM     32  H   UNL     1      17.522 118.331 105.355  1.00  0.00     0.158 HD
ATOM     33  H   UNL     1      17.522 118.331 105.355  1.00  0.00     0.158 HD
ENDBRANCH  21  31
TORSDOF 1
ENDMDL
