MODEL 1
REMARK VINA RESULT:     -11.2      0.000      0.000
REMARK SMILES CN1C(=O)N[C@H]2NCN3C=C4Cc5c(ncc6ncncc56)N=C4n4c3c2c1nc4=O
REMARK SMILES IDX 10 1 11 2 12 3 24 4 13 5 9 6 8 7 26 8 14 9 25 10 27 11 28 12
REMARK SMILES IDX 22 13 29 14 6 15 17 16 5 17 21 18 7 19 2 20 20 21 30 22
REMARK SMILES IDX 23 23 19 24 1 25 3 26 16 27 18 28 15 29 31 30 4 31
REMARK H PARENT 5 32 7 33
REMARK Flexibility Score: inf
ROOT
ATOM      1  C   UNL     1     -28.369 -12.642 145.914  1.00  0.00     0.096 C 
ATOM      2  C   UNL     1     -27.670 -13.445 145.308  1.00  0.00     0.017 C 
ATOM      3  C   UNL     1     -27.095 -14.595 145.848  1.00  0.00     0.081 C 
ATOM      4  C   UNL     1     -27.259 -13.314 143.870  1.00  0.00     0.150 C 
ATOM      5  C   UNL     1     -25.863 -15.138 145.574  1.00  0.00     0.012 A 
ATOM      6  N   UNL     1     -28.904 -11.453 145.222  1.00  0.00    -0.320 N 
ATOM      7  C   UNL     1     -29.783 -10.618 145.682  1.00  0.00     0.210 C 
ATOM      8  C   UNL     1     -28.416 -11.383 143.962  1.00  0.00     0.134 A 
ATOM      9  C   UNL     1     -25.325 -14.609 144.319  1.00  0.00     0.158 A 
ATOM     10  N   UNL     1     -27.706 -12.251 143.203  1.00  0.00    -0.228 N 
ATOM     11  C   UNL     1     -28.869 -10.364 143.068  1.00  0.00     0.074 A 
ATOM     12  C   UNL     1     -28.560 -10.327 141.741  1.00  0.00     0.152 A 
ATOM     13  C   UNL     1     -25.268 -16.239 146.237  1.00  0.00     0.027 A 
ATOM     14  N   UNL     1     -27.832 -11.304 141.137  1.00  0.00    -0.174 NA
ATOM     15  C   UNL     1     -29.717  -9.163 143.502  1.00  0.00     0.192 C 
ATOM     16  C   UNL     1     -23.943 -16.565 145.729  1.00  0.00     0.092 A 
ATOM     17  N   UNL     1     -29.988  -8.174 142.770  1.00  0.00    -0.318 N 
ATOM     18  C   UNL     1     -25.862 -17.043 147.079  1.00  0.00     0.123 A 
ATOM     19  N   UNL     1     -30.332  -9.163 144.759  1.00  0.00    -0.275 NA
ATOM     20  N   UNL     1     -29.113  -9.243 140.884  1.00  0.00    -0.281 N 
ATOM     21  N   UNL     1     -25.084 -18.246 147.386  1.00  0.00    -0.244 NA
ATOM     22  C   UNL     1     -27.436 -12.289 141.836  1.00  0.00     0.357 A 
ATOM     23  N   UNL     1     -26.182 -13.957 143.217  1.00  0.00    -0.210 NA
ATOM     24  C   UNL     1     -23.962 -18.493 146.931  1.00  0.00     0.222 A 
ATOM     25  C   UNL     1     -28.657  -9.190 139.622  1.00  0.00     0.157 C 
ATOM     26  C   UNL     1     -29.850  -8.153 141.415  1.00  0.00     0.324 C 
ATOM     27  C   UNL     1     -23.287 -15.621 144.823  1.00  0.00     0.142 A 
ATOM     28  N   UNL     1     -23.372 -17.682 145.984  1.00  0.00    -0.235 NA
ATOM     29  N   UNL     1     -24.036 -14.741 144.088  1.00  0.00    -0.235 NA
ATOM     30  O   UNL     1     -26.658 -13.351 141.350  1.00  0.00    -0.245 OA
ATOM     31  O   UNL     1     -29.938  -7.072 140.756  1.00  0.00    -0.248 OA
ATOM     32  H   UNL     1      -3.415   9.408   0.796  1.00  0.00     0.167 HD
ATOM     33  H   UNL     1      -3.415   9.408   0.796  1.00  0.00     0.126 HD
ENDROOT
TORSDOF 0
ENDMDL
MODEL 2
REMARK VINA RESULT:     -11.0      1.041      1.180
REMARK SMILES CN1C(=O)N[C@H]2NCN3C=C4Cc5c(ncc6ncncc56)N=C4n4c3c2c1nc4=O
REMARK SMILES IDX 10 1 11 2 12 3 24 4 13 5 9 6 8 7 26 8 14 9 25 10 27 11 28 12
REMARK SMILES IDX 22 13 29 14 6 15 17 16 5 17 21 18 7 19 2 20 20 21 30 22
REMARK SMILES IDX 23 23 19 24 1 25 3 26 16 27 18 28 15 29 31 30 4 31
REMARK H PARENT 5 32 7 33
REMARK Flexibility Score: inf
ROOT
ATOM      1  C   UNL     1     -28.660 -11.551 145.240  1.00  0.00     0.096 C 
ATOM      2  C   UNL     1     -28.022 -12.496 144.792  1.00  0.00     0.017 C 
ATOM      3  C   UNL     1     -27.588 -13.603 145.518  1.00  0.00     0.081 C 
ATOM      4  C   UNL     1     -27.545 -12.616 143.373  1.00  0.00     0.150 C 
ATOM      5  C   UNL     1     -26.407 -14.294 145.390  1.00  0.00     0.012 A 
ATOM      6  N   UNL     1     -29.045 -10.430 144.360  1.00  0.00    -0.320 N 
ATOM      7  C   UNL     1     -29.853  -9.458 144.649  1.00  0.00     0.210 C 
ATOM      8  C   UNL     1     -28.504 -10.591 143.130  1.00  0.00     0.134 A 
ATOM      9  C   UNL     1     -25.770 -14.007 144.104  1.00  0.00     0.158 A 
ATOM     10  N   UNL     1     -27.856 -11.624 142.540  1.00  0.00    -0.228 N 
ATOM     11  C   UNL     1     -28.816  -9.675 142.078  1.00  0.00     0.074 A 
ATOM     12  C   UNL     1     -28.453  -9.862 140.777  1.00  0.00     0.152 A 
ATOM     13  C   UNL     1     -25.952 -15.338 146.233  1.00  0.00     0.027 A 
ATOM     14  N   UNL     1     -27.805 -10.981 140.358  1.00  0.00    -0.174 NA
ATOM     15  C   UNL     1     -29.556  -8.350 142.293  1.00  0.00     0.192 C 
ATOM     16  C   UNL     1     -24.647 -15.858 145.847  1.00  0.00     0.092 A 
ATOM     17  N   UNL     1     -29.696  -7.457 141.415  1.00  0.00    -0.318 N 
ATOM     18  C   UNL     1     -26.657 -15.951 147.147  1.00  0.00     0.123 A 
ATOM     19  N   UNL     1     -30.216  -8.108 143.503  1.00  0.00    -0.275 NA
ATOM     20  N   UNL     1     -28.861  -8.867 139.748  1.00  0.00    -0.281 N 
ATOM     21  N   UNL     1     -26.016 -17.164 147.662  1.00  0.00    -0.244 NA
ATOM     22  C   UNL     1     -27.538 -11.886 141.209  1.00  0.00     0.357 A 
ATOM     23  N   UNL     1     -26.513 -13.445 142.876  1.00  0.00    -0.210 NA
ATOM     24  C   UNL     1     -24.908 -17.579 147.307  1.00  0.00     0.222 A 
ATOM     25  C   UNL     1     -28.353  -9.042 138.517  1.00  0.00     0.157 C 
ATOM     26  C   UNL     1     -29.505  -7.647 140.080  1.00  0.00     0.324 C 
ATOM     27  C   UNL     1     -23.865 -15.122 144.853  1.00  0.00     0.142 A 
ATOM     28  N   UNL     1     -24.203 -16.975 146.287  1.00  0.00    -0.235 NA
ATOM     29  N   UNL     1     -24.492 -14.293 143.962  1.00  0.00    -0.235 NA
ATOM     30  O   UNL     1     -26.853 -13.076 140.920  1.00  0.00    -0.245 OA
ATOM     31  O   UNL     1     -29.457  -6.670 139.271  1.00  0.00    -0.248 OA
ATOM     32  H   UNL     1       4.017 -13.359  -0.008  1.00  0.00     0.167 HD
ATOM     33  H   UNL     1       4.017 -13.359  -0.008  1.00  0.00     0.126 HD
ENDROOT
TORSDOF 0
ENDMDL
MODEL 3
REMARK VINA RESULT:     -11.0      4.840      8.180
REMARK SMILES CN1C(=O)N[C@H]2NCN3C=C4Cc5c(ncc6ncncc56)N=C4n4c3c2c1nc4=O
REMARK SMILES IDX 10 1 11 2 12 3 24 4 13 5 9 6 8 7 26 8 14 9 25 10 27 11 28 12
REMARK SMILES IDX 22 13 29 14 6 15 17 16 5 17 21 18 7 19 2 20 20 21 30 22
REMARK SMILES IDX 23 23 19 24 1 25 3 26 16 27 18 28 15 29 31 30 4 31
REMARK H PARENT 5 32 7 33
REMARK Flexibility Score: inf
ROOT
ATOM      1  C   UNL     1     -28.908 -12.689 147.497  1.00  0.00     0.096 C 
ATOM      2  C   UNL     1     -29.576 -13.602 147.966  1.00  0.00     0.017 C 
ATOM      3  C   UNL     1     -30.755 -13.457 148.695  1.00  0.00     0.081 C 
ATOM      4  C   UNL     1     -29.221 -15.058 147.883  1.00  0.00     0.150 C 
ATOM      5  C   UNL     1     -31.182 -14.192 149.775  1.00  0.00     0.012 A 
ATOM      6  N   UNL     1     -27.666 -12.982 146.755  1.00  0.00    -0.320 N 
ATOM      7  C   UNL     1     -26.955 -12.143 146.068  1.00  0.00     0.210 C 
ATOM      8  C   UNL     1     -27.391 -14.306 146.804  1.00  0.00     0.134 A 
ATOM      9  C   UNL     1     -30.453 -15.457 149.869  1.00  0.00     0.158 A 
ATOM     10  N   UNL     1     -28.102 -15.376 147.234  1.00  0.00    -0.228 N 
ATOM     11  C   UNL     1     -26.284 -14.841 146.075  1.00  0.00     0.074 A 
ATOM     12  C   UNL     1     -26.043 -16.176 145.933  1.00  0.00     0.152 A 
ATOM     13  C   UNL     1     -32.330 -13.931 150.563  1.00  0.00     0.027 A 
ATOM     14  N   UNL     1     -26.882 -17.122 146.432  1.00  0.00    -0.174 NA
ATOM     15  C   UNL     1     -25.208 -13.980 145.405  1.00  0.00     0.192 C 
ATOM     16  C   UNL     1     -32.505 -14.882 151.652  1.00  0.00     0.092 A 
ATOM     17  N   UNL     1     -24.142 -14.427 144.902  1.00  0.00    -0.318 N 
ATOM     18  C   UNL     1     -33.278 -13.075 150.284  1.00  0.00     0.123 A 
ATOM     19  N   UNL     1     -25.419 -12.608 145.235  1.00  0.00    -0.275 NA
ATOM     20  N   UNL     1     -24.883 -16.634 145.121  1.00  0.00    -0.281 N 
ATOM     21  N   UNL     1     -34.465 -13.221 151.130  1.00  0.00    -0.244 NA
ATOM     22  C   UNL     1     -27.932 -16.746 147.042  1.00  0.00     0.357 A 
ATOM     23  N   UNL     1     -29.703 -16.112 148.693  1.00  0.00    -0.210 NA
ATOM     24  C   UNL     1     -34.580 -14.044 152.043  1.00  0.00     0.222 A 
ATOM     25  C   UNL     1     -24.626 -17.952 145.139  1.00  0.00     0.157 C 
ATOM     26  C   UNL     1     -23.923 -15.735 144.589  1.00  0.00     0.324 C 
ATOM     27  C   UNL     1     -31.407 -15.796 151.968  1.00  0.00     0.142 A 
ATOM     28  N   UNL     1     -33.612 -14.997 152.284  1.00  0.00    -0.235 NA
ATOM     29  N   UNL     1     -30.477 -16.109 151.013  1.00  0.00    -0.235 NA
ATOM     30  O   UNL     1     -28.868 -17.612 147.628  1.00  0.00    -0.245 OA
ATOM     31  O   UNL     1     -22.767 -16.158 144.282  1.00  0.00    -0.248 OA
ATOM     32  H   UNL     1      14.734-152.991 123.442  1.00  0.00     0.167 HD
ATOM     33  H   UNL     1      14.734-152.991 123.442  1.00  0.00     0.126 HD
ENDROOT
TORSDOF 0
ENDMDL
MODEL 4
REMARK VINA RESULT:     -10.8      5.089      7.265
REMARK SMILES CN1C(=O)N[C@H]2NCN3C=C4Cc5c(ncc6ncncc56)N=C4n4c3c2c1nc4=O
REMARK SMILES IDX 10 1 11 2 12 3 24 4 13 5 9 6 8 7 26 8 14 9 25 10 27 11 28 12
REMARK SMILES IDX 22 13 29 14 6 15 17 16 5 17 21 18 7 19 2 20 20 21 30 22
REMARK SMILES IDX 23 23 19 24 1 25 3 26 16 27 18 28 15 29 31 30 4 31
REMARK H PARENT 5 32 7 33
REMARK Flexibility Score: inf
ROOT
ATOM      1  C   UNL     1     -28.521 -16.879 148.894  1.00  0.00     0.096 C 
ATOM      2  C   UNL     1     -28.154 -16.129 147.998  1.00  0.00     0.017 C 
ATOM      3  C   UNL     1     -27.094 -16.361 147.124  1.00  0.00     0.081 C 
ATOM      4  C   UNL     1     -28.755 -14.785 147.702  1.00  0.00     0.150 C 
ATOM      5  C   UNL     1     -26.194 -15.454 146.619  1.00  0.00     0.012 A 
ATOM      6  N   UNL     1     -29.655 -16.503 149.761  1.00  0.00    -0.320 N 
ATOM      7  C   UNL     1     -30.254 -17.258 150.628  1.00  0.00     0.210 C 
ATOM      8  C   UNL     1     -30.073 -15.249 149.470  1.00  0.00     0.134 A 
ATOM      9  C   UNL     1     -26.691 -14.085 146.767  1.00  0.00     0.158 A 
ATOM     10  N   UNL     1     -29.774 -14.392 148.465  1.00  0.00    -0.228 N 
ATOM     11  C   UNL     1     -31.223 -14.702 150.118  1.00  0.00     0.074 A 
ATOM     12  C   UNL     1     -31.807 -13.524 149.761  1.00  0.00     0.152 A 
ATOM     13  C   UNL     1     -25.055 -15.754 145.832  1.00  0.00     0.027 A 
ATOM     14  N   UNL     1     -31.372 -12.789 148.703  1.00  0.00    -0.174 NA
ATOM     15  C   UNL     1     -31.911 -15.351 151.325  1.00  0.00     0.192 C 
ATOM     16  C   UNL     1     -24.285 -14.573 145.466  1.00  0.00     0.092 A 
ATOM     17  N   UNL     1     -32.818 -14.808 152.011  1.00  0.00    -0.318 N 
ATOM     18  C   UNL     1     -24.779 -16.910 145.288  1.00  0.00     0.123 A 
ATOM     19  N   UNL     1     -31.608 -16.672 151.673  1.00  0.00    -0.275 NA
ATOM     20  N   UNL     1     -33.027 -13.058 150.475  1.00  0.00    -0.281 N 
ATOM     21  N   UNL     1     -23.693 -16.849 144.306  1.00  0.00    -0.244 NA
ATOM     22  C   UNL     1     -30.392 -13.224 148.021  1.00  0.00     0.357 A 
ATOM     23  N   UNL     1     -28.175 -13.722 146.972  1.00  0.00    -0.210 NA
ATOM     24  C   UNL     1     -23.063 -15.827 144.017  1.00  0.00     0.222 A 
ATOM     25  C   UNL     1     -33.466 -11.827 150.165  1.00  0.00     0.157 C 
ATOM     26  C   UNL     1     -33.544 -13.725 151.616  1.00  0.00     0.324 C 
ATOM     27  C   UNL     1     -24.591 -13.304 146.126  1.00  0.00     0.142 A 
ATOM     28  N   UNL     1     -23.409 -14.595 144.533  1.00  0.00    -0.235 NA
ATOM     29  N   UNL     1     -25.831 -13.094 146.669  1.00  0.00    -0.235 NA
ATOM     30  O   UNL     1     -29.825 -12.558 146.923  1.00  0.00    -0.245 OA
ATOM     31  O   UNL     1     -34.293 -13.098 152.426  1.00  0.00    -0.248 OA
ATOM     32  H   UNL     1    -103.763 109.572 126.160  1.00  0.00     0.167 HD
ATOM     33  H   UNL     1    -103.763 109.572 126.160  1.00  0.00     0.126 HD
ENDROOT
TORSDOF 0
ENDMDL
MODEL 5
REMARK VINA RESULT:     -10.8      1.720      3.169
REMARK SMILES CN1C(=O)N[C@H]2NCN3C=C4Cc5c(ncc6ncncc56)N=C4n4c3c2c1nc4=O
REMARK SMILES IDX 10 1 11 2 12 3 24 4 13 5 9 6 8 7 26 8 14 9 25 10 27 11 28 12
REMARK SMILES IDX 22 13 29 14 6 15 17 16 5 17 21 18 7 19 2 20 20 21 30 22
REMARK SMILES IDX 23 23 19 24 1 25 3 26 16 27 18 28 15 29 31 30 4 31
REMARK H PARENT 5 32 7 33
REMARK Flexibility Score: inf
ROOT
ATOM      1  C   UNL     1     -26.417 -13.647 142.524  1.00  0.00     0.096 C 
ATOM      2  C   UNL     1     -26.256 -13.823 143.725  1.00  0.00     0.017 C 
ATOM      3  C   UNL     1     -25.433 -14.787 144.304  1.00  0.00     0.081 C 
ATOM      4  C   UNL     1     -26.960 -13.056 144.808  1.00  0.00     0.150 C 
ATOM      5  C   UNL     1     -25.656 -15.520 145.444  1.00  0.00     0.012 A 
ATOM      6  N   UNL     1     -27.335 -12.595 142.043  1.00  0.00    -0.320 N 
ATOM      7  C   UNL     1     -27.476 -12.186 140.820  1.00  0.00     0.210 C 
ATOM      8  C   UNL     1     -27.976 -12.018 143.086  1.00  0.00     0.134 A 
ATOM      9  C   UNL     1     -26.700 -14.908 146.266  1.00  0.00     0.158 A 
ATOM     10  N   UNL     1     -27.808 -12.103 144.427  1.00  0.00    -0.228 N 
ATOM     11  C   UNL     1     -28.848 -10.906 142.872  1.00  0.00     0.074 A 
ATOM     12  C   UNL     1     -29.393 -10.165 143.878  1.00  0.00     0.152 A 
ATOM     13  C   UNL     1     -24.848 -16.579 145.929  1.00  0.00     0.027 A 
ATOM     14  N   UNL     1     -29.101 -10.391 145.187  1.00  0.00    -0.174 NA
ATOM     15  C   UNL     1     -29.313 -10.441 141.487  1.00  0.00     0.192 C 
ATOM     16  C   UNL     1     -25.360 -17.174 147.156  1.00  0.00     0.092 A 
ATOM     17  N   UNL     1     -30.205  -9.573 141.284  1.00  0.00    -0.318 N 
ATOM     18  C   UNL     1     -23.661 -16.904 145.490  1.00  0.00     0.123 A 
ATOM     19  N   UNL     1     -28.670 -10.917 140.339  1.00  0.00    -0.275 NA
ATOM     20  N   UNL     1     -30.260  -9.000 143.550  1.00  0.00    -0.281 N 
ATOM     21  N   UNL     1     -22.956 -17.850 146.359  1.00  0.00    -0.244 NA
ATOM     22  C   UNL     1     -28.283 -11.319 145.477  1.00  0.00     0.357 A 
ATOM     23  N   UNL     1     -27.128 -13.431 146.161  1.00  0.00    -0.210 NA
ATOM     24  C   UNL     1     -23.420 -18.332 147.397  1.00  0.00     0.222 A 
ATOM     25  C   UNL     1     -30.872  -8.403 144.585  1.00  0.00     0.157 C 
ATOM     26  C   UNL     1     -30.661  -8.698 142.223  1.00  0.00     0.324 C 
ATOM     27  C   UNL     1     -26.711 -16.822 147.596  1.00  0.00     0.142 A 
ATOM     28  N   UNL     1     -24.639 -17.927 147.899  1.00  0.00    -0.235 NA
ATOM     29  N   UNL     1     -27.280 -15.644 147.191  1.00  0.00    -0.235 NA
ATOM     30  O   UNL     1     -27.913 -11.677 146.783  1.00  0.00    -0.245 OA
ATOM     31  O   UNL     1     -31.696  -7.993 142.024  1.00  0.00    -0.248 OA
ATOM     32  H   UNL     1     -96.694  76.358 238.066  1.00  0.00     0.167 HD
ATOM     33  H   UNL     1     -96.694  76.358 238.066  1.00  0.00     0.126 HD
ENDROOT
TORSDOF 0
ENDMDL
MODEL 6
REMARK VINA RESULT:     -10.7      6.270      8.372
REMARK SMILES CN1C(=O)N[C@H]2NCN3C=C4Cc5c(ncc6ncncc56)N=C4n4c3c2c1nc4=O
REMARK SMILES IDX 10 1 11 2 12 3 24 4 13 5 9 6 8 7 26 8 14 9 25 10 27 11 28 12
REMARK SMILES IDX 22 13 29 14 6 15 17 16 5 17 21 18 7 19 2 20 20 21 30 22
REMARK SMILES IDX 23 23 19 24 1 25 3 26 16 27 18 28 15 29 31 30 4 31
REMARK H PARENT 5 32 7 33
REMARK Flexibility Score: inf
ROOT
ATOM      1  C   UNL     1     -30.461 -12.441 148.360  1.00  0.00     0.096 C 
ATOM      2  C   UNL     1     -29.670 -13.374 148.306  1.00  0.00     0.017 C 
ATOM      3  C   UNL     1     -28.513 -13.418 147.531  1.00  0.00     0.081 C 
ATOM      4  C   UNL     1     -29.827 -14.677 149.037  1.00  0.00     0.150 C 
ATOM      5  C   UNL     1     -27.978 -14.493 146.863  1.00  0.00     0.012 A 
ATOM      6  N   UNL     1     -31.661 -12.531 149.216  1.00  0.00    -0.320 N 
ATOM      7  C   UNL     1     -32.486 -11.573 149.500  1.00  0.00     0.210 C 
ATOM      8  C   UNL     1     -31.754 -13.765 149.766  1.00  0.00     0.134 A 
ATOM      9  C   UNL     1     -28.529 -15.751 147.368  1.00  0.00     0.158 A 
ATOM     10  N   UNL     1     -30.901 -14.815 149.813  1.00  0.00    -0.228 N 
ATOM     11  C   UNL     1     -32.787 -14.059 150.708  1.00  0.00     0.074 A 
ATOM     12  C   UNL     1     -32.847 -15.213 151.432  1.00  0.00     0.152 A 
ATOM     13  C   UNL     1     -26.867 -14.463 145.984  1.00  0.00     0.027 A 
ATOM     14  N   UNL     1     -31.882 -16.168 151.358  1.00  0.00    -0.174 NA
ATOM     15  C   UNL     1     -33.978 -13.134 150.985  1.00  0.00     0.192 C 
ATOM     16  C   UNL     1     -26.553 -15.767 145.414  1.00  0.00     0.092 A 
ATOM     17  N   UNL     1     -34.979 -13.444 151.685  1.00  0.00    -0.318 N 
ATOM     18  C   UNL     1     -26.047 -13.460 145.814  1.00  0.00     0.123 A 
ATOM     19  N   UNL     1     -33.956 -11.813 150.526  1.00  0.00    -0.275 NA
ATOM     20  N   UNL     1     -33.945 -15.409 152.418  1.00  0.00    -0.281 N 
ATOM     21  N   UNL     1     -24.841 -13.813 145.060  1.00  0.00    -0.244 NA
ATOM     22  C   UNL     1     -30.886 -15.970 150.593  1.00  0.00     0.357 A 
ATOM     23  N   UNL     1     -29.198 -15.910 148.747  1.00  0.00    -0.210 NA
ATOM     24  C   UNL     1     -24.605 -14.932 144.595  1.00  0.00     0.222 A 
ATOM     25  C   UNL     1     -34.021 -16.620 152.992  1.00  0.00     0.157 C 
ATOM     26  C   UNL     1     -35.024 -14.496 152.549  1.00  0.00     0.324 C 
ATOM     27  C   UNL     1     -27.514 -16.857 145.585  1.00  0.00     0.142 A 
ATOM     28  N   UNL     1     -25.433 -16.007 144.843  1.00  0.00    -0.235 NA
ATOM     29  N   UNL     1     -28.404 -16.831 146.626  1.00  0.00    -0.235 NA
ATOM     30  O   UNL     1     -29.835 -16.879 150.401  1.00  0.00    -0.245 OA
ATOM     31  O   UNL     1     -36.115 -14.883 153.067  1.00  0.00    -0.248 OA
ATOM     32  H   UNL     1     -55.061-132.061 233.531  1.00  0.00     0.167 HD
ATOM     33  H   UNL     1     -55.061-132.061 233.531  1.00  0.00     0.126 HD
ENDROOT
TORSDOF 0
ENDMDL
MODEL 7
REMARK VINA RESULT:     -10.2      2.599      8.209
REMARK SMILES CN1C(=O)N[C@H]2NCN3C=C4Cc5c(ncc6ncncc56)N=C4n4c3c2c1nc4=O
REMARK SMILES IDX 10 1 11 2 12 3 24 4 13 5 9 6 8 7 26 8 14 9 25 10 27 11 28 12
REMARK SMILES IDX 22 13 29 14 6 15 17 16 5 17 21 18 7 19 2 20 20 21 30 22
REMARK SMILES IDX 23 23 19 24 1 25 3 26 16 27 18 28 15 29 31 30 4 31
REMARK H PARENT 5 32 7 33
REMARK Flexibility Score: inf
ROOT
ATOM      1  C   UNL     1     -29.788 -12.557 146.369  1.00  0.00     0.096 C 
ATOM      2  C   UNL     1     -29.087 -11.954 145.566  1.00  0.00     0.017 C 
ATOM      3  C   UNL     1     -29.496 -10.889 144.766  1.00  0.00     0.081 C 
ATOM      4  C   UNL     1     -27.655 -12.285 145.257  1.00  0.00     0.150 C 
ATOM      5  C   UNL     1     -29.132 -10.610 143.471  1.00  0.00     0.012 A 
ATOM      6  N   UNL     1     -29.230 -13.682 147.146  1.00  0.00    -0.320 N 
ATOM      7  C   UNL     1     -29.795 -14.296 148.138  1.00  0.00     0.210 C 
ATOM      8  C   UNL     1     -27.967 -13.952 146.740  1.00  0.00     0.134 A 
ATOM      9  C   UNL     1     -27.918 -11.337 143.099  1.00  0.00     0.158 A 
ATOM     10  N   UNL     1     -27.107 -13.301 145.922  1.00  0.00    -0.228 N 
ATOM     11  C   UNL     1     -27.189 -14.943 147.414  1.00  0.00     0.074 A 
ATOM     12  C   UNL     1     -25.863 -15.153 147.182  1.00  0.00     0.152 A 
ATOM     13  C   UNL     1     -29.669  -9.585 142.653  1.00  0.00     0.027 A 
ATOM     14  N   UNL     1     -25.146 -14.385 146.319  1.00  0.00    -0.174 NA
ATOM     15  C   UNL     1     -27.763 -15.922 148.445  1.00  0.00     0.192 C 
ATOM     16  C   UNL     1     -29.090  -9.557 141.317  1.00  0.00     0.092 A 
ATOM     17  N   UNL     1     -27.137 -16.905 148.926  1.00  0.00    -0.318 N 
ATOM     18  C   UNL     1     -30.448  -8.613 143.049  1.00  0.00     0.123 A 
ATOM     19  N   UNL     1     -29.033 -15.699 148.987  1.00  0.00    -0.275 NA
ATOM     20  N   UNL     1     -25.131 -16.187 147.964  1.00  0.00    -0.281 N 
ATOM     21  N   UNL     1     -30.614  -7.554 142.051  1.00  0.00    -0.244 NA
ATOM     22  C   UNL     1     -25.735 -13.433 145.717  1.00  0.00     0.357 A 
ATOM     23  N   UNL     1     -26.910 -11.913 144.114  1.00  0.00    -0.210 NA
ATOM     24  C   UNL     1     -30.103  -7.561 140.926  1.00  0.00     0.222 A 
ATOM     25  C   UNL     1     -23.866 -16.435 147.588  1.00  0.00     0.157 C 
ATOM     26  C   UNL     1     -25.787 -17.070 148.861  1.00  0.00     0.324 C 
ATOM     27  C   UNL     1     -28.258 -10.682 140.889  1.00  0.00     0.142 A 
ATOM     28  N   UNL     1     -29.219  -8.547 140.541  1.00  0.00    -0.235 NA
ATOM     29  N   UNL     1     -27.634 -11.468 141.821  1.00  0.00    -0.235 NA
ATOM     30  O   UNL     1     -25.126 -12.581 144.783  1.00  0.00    -0.245 OA
ATOM     31  O   UNL     1     -25.237 -18.169 149.176  1.00  0.00    -0.248 OA
ATOM     32  H   UNL     1     113.287 -51.513 132.957  1.00  0.00     0.167 HD
ATOM     33  H   UNL     1     113.287 -51.513 132.957  1.00  0.00     0.126 HD
ENDROOT
TORSDOF 0
ENDMDL
MODEL 8
REMARK VINA RESULT:     -10.2      2.733      8.127
REMARK SMILES CN1C(=O)N[C@H]2NCN3C=C4Cc5c(ncc6ncncc56)N=C4n4c3c2c1nc4=O
REMARK SMILES IDX 10 1 11 2 12 3 24 4 13 5 9 6 8 7 26 8 14 9 25 10 27 11 28 12
REMARK SMILES IDX 22 13 29 14 6 15 17 16 5 17 21 18 7 19 2 20 20 21 30 22
REMARK SMILES IDX 23 23 19 24 1 25 3 26 16 27 18 28 15 29 31 30 4 31
REMARK H PARENT 5 32 7 33
REMARK Flexibility Score: inf
ROOT
ATOM      1  C   UNL     1     -30.191 -10.952 146.198  1.00  0.00     0.096 C 
ATOM      2  C   UNL     1     -29.413 -10.777 145.269  1.00  0.00     0.017 C 
ATOM      3  C   UNL     1     -29.444  -9.710 144.372  1.00  0.00     0.081 C 
ATOM      4  C   UNL     1     -28.301 -11.712 144.890  1.00  0.00     0.150 C 
ATOM      5  C   UNL     1     -29.168  -9.724 143.026  1.00  0.00     0.012 A 
ATOM      6  N   UNL     1     -30.055 -12.138 147.067  1.00  0.00    -0.320 N 
ATOM      7  C   UNL     1     -30.690 -12.366 148.175  1.00  0.00     0.210 C 
ATOM      8  C   UNL     1     -29.083 -12.955 146.599  1.00  0.00     0.134 A 
ATOM      9  C   UNL     1     -28.424 -10.928 142.655  1.00  0.00     0.158 A 
ATOM     10  N   UNL     1     -28.144 -12.804 145.635  1.00  0.00    -0.228 N 
ATOM     11  C   UNL     1     -28.706 -14.123 147.331  1.00  0.00     0.074 A 
ATOM     12  C   UNL     1     -27.628 -14.898 147.021  1.00  0.00     0.152 A 
ATOM     13  C   UNL     1     -29.332  -8.641 142.127  1.00  0.00     0.027 A 
ATOM     14  N   UNL     1     -26.776 -14.585 146.009  1.00  0.00    -0.174 NA
ATOM     15  C   UNL     1     -29.495 -14.673 148.525  1.00  0.00     0.192 C 
ATOM     16  C   UNL     1     -28.972  -8.975 140.756  1.00  0.00     0.092 A 
ATOM     17  N   UNL     1     -29.277 -15.784 149.078  1.00  0.00    -0.318 N 
ATOM     18  C   UNL     1     -29.579  -7.400 142.455  1.00  0.00     0.123 A 
ATOM     19  N   UNL     1     -30.476 -13.883 149.135  1.00  0.00    -0.275 NA
ATOM     20  N   UNL     1     -27.297 -16.075 147.870  1.00  0.00    -0.281 N 
ATOM     21  N   UNL     1     -29.419  -6.459 141.343  1.00  0.00    -0.244 NA
ATOM     22  C   UNL     1     -26.990 -13.527 145.337  1.00  0.00     0.357 A 
ATOM     23  N   UNL     1     -27.625 -11.791 143.651  1.00  0.00    -0.210 NA
ATOM     24  C   UNL     1     -29.107  -6.778 140.192  1.00  0.00     0.222 A 
ATOM     25  C   UNL     1     -26.309 -16.870 147.427  1.00  0.00     0.157 C 
ATOM     26  C   UNL     1     -28.138 -16.515 148.925  1.00  0.00     0.324 C 
ATOM     27  C   UNL     1     -28.745 -10.379 140.413  1.00  0.00     0.142 A 
ATOM     28  N   UNL     1     -28.770  -8.076 139.867  1.00  0.00    -0.235 NA
ATOM     29  N   UNL     1     -28.388 -11.275 141.385  1.00  0.00    -0.235 NA
ATOM     30  O   UNL     1     -26.208 -13.099 144.253  1.00  0.00    -0.245 OA
ATOM     31  O   UNL     1     -28.058 -17.712 149.335  1.00  0.00    -0.248 OA
ATOM     32  H   UNL     1      80.756-108.243 126.366  1.00  0.00     0.167 HD
ATOM     33  H   UNL     1      80.756-108.243 126.366  1.00  0.00     0.126 HD
ENDROOT
TORSDOF 0
ENDMDL
MODEL 9
REMARK VINA RESULT:     -10.1      3.287      8.910
REMARK SMILES CN1C(=O)N[C@H]2NCN3C=C4Cc5c(ncc6ncncc56)N=C4n4c3c2c1nc4=O
REMARK SMILES IDX 10 1 11 2 12 3 24 4 13 5 9 6 8 7 26 8 14 9 25 10 27 11 28 12
REMARK SMILES IDX 22 13 29 14 6 15 17 16 5 17 21 18 7 19 2 20 20 21 30 22
REMARK SMILES IDX 23 23 19 24 1 25 3 26 16 27 18 28 15 29 31 30 4 31
REMARK H PARENT 5 32 7 33
REMARK Flexibility Score: inf
ROOT
ATOM      1  C   UNL     1     -25.693 -14.068 145.497  1.00  0.00     0.096 C 
ATOM      2  C   UNL     1     -26.826 -13.664 145.268  1.00  0.00     0.017 C 
ATOM      3  C   UNL     1     -27.182 -12.759 144.270  1.00  0.00     0.081 C 
ATOM      4  C   UNL     1     -28.047 -14.034 146.059  1.00  0.00     0.150 C 
ATOM      5  C   UNL     1     -28.128 -11.764 144.322  1.00  0.00     0.012 A 
ATOM      6  N   UNL     1     -25.452 -15.019 146.600  1.00  0.00    -0.320 N 
ATOM      7  C   UNL     1     -24.350 -15.655 146.850  1.00  0.00     0.210 C 
ATOM      8  C   UNL     1     -26.592 -15.228 147.299  1.00  0.00     0.134 A 
ATOM      9  C   UNL     1     -29.058 -11.984 145.431  1.00  0.00     0.158 A 
ATOM     10  N   UNL     1     -27.881 -14.881 147.075  1.00  0.00    -0.228 N 
ATOM     11  C   UNL     1     -26.625 -16.186 148.359  1.00  0.00     0.074 A 
ATOM     12  C   UNL     1     -27.767 -16.577 148.993  1.00  0.00     0.152 A 
ATOM     13  C   UNL     1     -28.370 -10.787 143.326  1.00  0.00     0.027 A 
ATOM     14  N   UNL     1     -28.994 -16.124 148.623  1.00  0.00    -0.174 NA
ATOM     15  C   UNL     1     -25.375 -16.853 148.944  1.00  0.00     0.192 C 
ATOM     16  C   UNL     1     -29.430  -9.854 143.685  1.00  0.00     0.092 A 
ATOM     17  N   UNL     1     -25.364 -17.571 149.980  1.00  0.00    -0.318 N 
ATOM     18  C   UNL     1     -27.879 -10.784 142.115  1.00  0.00     0.123 A 
ATOM     19  N   UNL     1     -24.155 -16.765 148.265  1.00  0.00    -0.275 NA
ATOM     20  N   UNL     1     -27.700 -17.611 150.061  1.00  0.00    -0.281 N 
ATOM     21  N   UNL     1     -28.520  -9.811 141.226  1.00  0.00    -0.244 NA
ATOM     22  C   UNL     1     -29.076 -15.315 147.645  1.00  0.00     0.357 A 
ATOM     23  N   UNL     1     -29.281 -13.346 146.115  1.00  0.00    -0.210 NA
ATOM     24  C   UNL     1     -29.422  -9.037 141.564  1.00  0.00     0.222 A 
ATOM     25  C   UNL     1     -28.838 -17.846 150.735  1.00  0.00     0.157 C 
ATOM     26  C   UNL     1     -26.471 -18.121 150.552  1.00  0.00     0.324 C 
ATOM     27  C   UNL     1     -29.927  -9.853 145.061  1.00  0.00     0.142 A 
ATOM     28  N   UNL     1     -29.992  -9.097 142.819  1.00  0.00    -0.235 NA
ATOM     29  N   UNL     1     -29.792 -10.970 145.841  1.00  0.00    -0.235 NA
ATOM     30  O   UNL     1     -30.272 -14.751 147.176  1.00  0.00    -0.245 OA
ATOM     31  O   UNL     1     -26.426 -18.656 151.702  1.00  0.00    -0.248 OA
ATOM     32  H   UNL     1    -138.362 -66.731 227.352  1.00  0.00     0.167 HD
ATOM     33  H   UNL     1    -138.362 -66.731 227.352  1.00  0.00     0.126 HD
ENDROOT
TORSDOF 0
ENDMDL
MODEL 10
REMARK VINA RESULT:      -9.8      1.995      3.585
REMARK SMILES CN1C(=O)N[C@H]2NCN3C=C4Cc5c(ncc6ncncc56)N=C4n4c3c2c1nc4=O
REMARK SMILES IDX 10 1 11 2 12 3 24 4 13 5 9 6 8 7 26 8 14 9 25 10 27 11 28 12
REMARK SMILES IDX 22 13 29 14 6 15 17 16 5 17 21 18 7 19 2 20 20 21 30 22
REMARK SMILES IDX 23 23 19 24 1 25 3 26 16 27 18 28 15 29 31 30 4 31
REMARK H PARENT 5 32 7 33
REMARK Flexibility Score: inf
ROOT
ATOM      1  C   UNL     1     -26.723 -13.683 142.307  1.00  0.00     0.096 C 
ATOM      2  C   UNL     1     -26.862 -13.524 143.514  1.00  0.00     0.017 C 
ATOM      3  C   UNL     1     -26.491 -14.432 144.503  1.00  0.00     0.081 C 
ATOM      4  C   UNL     1     -27.509 -12.329 144.154  1.00  0.00     0.150 C 
ATOM      5  C   UNL     1     -27.140 -14.720 145.679  1.00  0.00     0.012 A 
ATOM      6  N   UNL     1     -27.177 -12.643 141.363  1.00  0.00    -0.320 N 
ATOM      7  C   UNL     1     -26.946 -12.598 140.088  1.00  0.00     0.210 C 
ATOM      8  C   UNL     1     -27.813 -11.650 142.027  1.00  0.00     0.134 A 
ATOM      9  C   UNL     1     -28.100 -13.668 146.020  1.00  0.00     0.158 A 
ATOM     10  N   UNL     1     -27.947 -11.367 143.344  1.00  0.00    -0.228 N 
ATOM     11  C   UNL     1     -28.259 -10.485 141.330  1.00  0.00     0.074 A 
ATOM     12  C   UNL     1     -28.750  -9.373 141.948  1.00  0.00     0.152 A 
ATOM     13  C   UNL     1     -26.793 -15.740 146.599  1.00  0.00     0.027 A 
ATOM     14  N   UNL     1     -28.803  -9.258 143.302  1.00  0.00    -0.174 NA
ATOM     15  C   UNL     1     -28.283 -10.362 139.802  1.00  0.00     0.192 C 
ATOM     16  C   UNL     1     -27.690 -15.808 147.744  1.00  0.00     0.092 A 
ATOM     17  N   UNL     1     -28.821  -9.415 139.167  1.00  0.00    -0.318 N 
ATOM     18  C   UNL     1     -25.691 -16.444 146.587  1.00  0.00     0.123 A 
ATOM     19  N   UNL     1     -27.595 -11.293 139.017  1.00  0.00    -0.275 NA
ATOM     20  N   UNL     1     -29.154  -8.194 141.134  1.00  0.00    -0.281 N 
ATOM     21  N   UNL     1     -25.482 -17.221 147.812  1.00  0.00    -0.244 NA
ATOM     22  C   UNL     1     -28.369 -10.218 144.012  1.00  0.00     0.357 A 
ATOM     23  N   UNL     1     -28.045 -12.234 145.459  1.00  0.00    -0.210 NA
ATOM     24  C   UNL     1     -26.264 -17.251 148.768  1.00  0.00     0.222 A 
ATOM     25  C   UNL     1     -29.755  -7.192 141.794  1.00  0.00     0.157 C 
ATOM     26  C   UNL     1     -29.177  -8.220 139.715  1.00  0.00     0.324 C 
ATOM     27  C   UNL     1     -28.936 -15.043 147.706  1.00  0.00     0.142 A 
ATOM     28  N   UNL     1     -27.384 -16.448 148.810  1.00  0.00    -0.235 NA
ATOM     29  N   UNL     1     -29.041 -13.942 146.898  1.00  0.00    -0.235 NA
ATOM     30  O   UNL     1     -28.386 -10.244 145.415  1.00  0.00    -0.245 OA
ATOM     31  O   UNL     1     -29.898  -7.389 139.083  1.00  0.00    -0.248 OA
ATOM     32  H   UNL     1     -84.903 114.300 191.332  1.00  0.00     0.167 HD
ATOM     33  H   UNL     1     -84.903 114.300 191.332  1.00  0.00     0.126 HD
ENDROOT
TORSDOF 0
ENDMDL
