MODEL 1
REMARK VINA RESULT:     -11.1      0.000      0.000
REMARK SMILES CCc1ncnc2c1CC1=Cn3ccc4nc(=N)nc5c-4c3N(C1=N2)[C@H]1N=CC=CN51
REMARK SMILES IDX 11 1 10 2 9 3 24 4 8 5 12 6 13 7 22 8 7 9 23 10 21 11 20 12
REMARK SMILES IDX 26 13 15 14 31 15 30 16 14 17 3 18 6 19 5 20 25 21 16 22
REMARK SMILES IDX 17 23 19 24 4 25 18 26 29 27 27 28 28 29 2 31 1 32
REMARK H PARENT 18 30
REMARK Flexibility Score: inf
ROOT
ATOM      1  C   UNL     1     -25.575 -14.125 143.680  1.00  0.00     0.100 C 
ATOM      2  C   UNL     1     -26.657 -13.558 143.774  1.00  0.00     0.016 C 
ATOM      3  C   UNL     1     -27.200 -12.679 142.839  1.00  0.00     0.082 C 
ATOM      4  C   UNL     1     -27.587 -13.670 144.948  1.00  0.00     0.144 C 
ATOM      5  C   UNL     1     -27.937 -11.543 143.069  1.00  0.00     0.023 A 
ATOM      6  N   UNL     1     -25.111 -15.023 144.756  1.00  0.00    -0.309 N 
ATOM      7  C   UNL     1     -24.082 -15.811 144.719  1.00  0.00     0.095 A 
ATOM      8  C   UNL     1     -25.975 -14.995 145.797  1.00  0.00     0.135 A 
ATOM      9  C   UNL     1     -28.471 -11.531 144.432  1.00  0.00     0.161 A 
ATOM     10  N   UNL     1     -27.209 -14.460 145.952  1.00  0.00    -0.269 N 
ATOM     11  C   UNL     1     -25.782 -15.859 146.919  1.00  0.00     0.085 A 
ATOM     12  C   UNL     1     -26.692 -16.015 147.922  1.00  0.00     0.153 A 
ATOM     13  C   UNL     1     -28.064 -14.567 147.006  1.00  0.00     0.316 C 
ATOM     14  C   UNL     1     -24.462 -16.741 147.085  1.00  0.00     0.083 A 
ATOM     15  N   UNL     1     -27.781 -15.446 147.882  1.00  0.00    -0.292 N 
ATOM     16  C   UNL     1     -28.883 -15.747 148.840  1.00  0.00     0.093 C 
ATOM     17  C   UNL     1     -23.744 -16.575 145.846  1.00  0.00     0.048 A 
ATOM     18  C   UNL     1     -28.664 -10.754 142.105  1.00  0.00     0.049 A 
ATOM     19  N   UNL     1     -29.339 -10.459 144.815  1.00  0.00    -0.217 NA
ATOM     20  C   UNL     1     -29.657  -9.549 143.899  1.00  0.00     0.224 A 
ATOM     21  N   UNL     1     -28.465 -12.571 145.275  1.00  0.00    -0.210 NA
ATOM     22  N   UNL     1     -24.158 -17.315 148.164  1.00  0.00    -0.211 NA
ATOM     23  C   UNL     1     -25.251 -17.307 149.155  1.00  0.00     0.244 A 
ATOM     24  N   UNL     1     -26.372 -16.742 149.071  1.00  0.00    -0.193 NA
ATOM     25  N   UNL     1     -29.408  -9.620 142.593  1.00  0.00    -0.241 NA
ATOM     26  N   UNL     1     -24.880 -17.890 150.216  1.00  0.00    -0.265 NA
ATOM     27  C   UNL     1     -30.109 -15.109 148.483  1.00  0.00     0.038 C 
ATOM     28  N   UNL     1     -29.427 -14.004 146.920  1.00  0.00    -0.247 NA
ATOM     29  C   UNL     1     -30.245 -14.457 147.587  1.00  0.00     0.111 C 
ATOM     30  H   UNL     1    -110.864 -42.013 262.492  1.00  0.00     0.191 HD
ENDROOT
BRANCH  18  31
ATOM     31  C   UNL     1     -28.365 -10.899 140.733  1.00  0.00     0.053 C 
ATOM     32  C   UNL     1     -28.208  -9.534 140.141  1.00  0.00     0.011 C 
ENDBRANCH  18  31
TORSDOF 1
ENDMDL
MODEL 2
REMARK VINA RESULT:     -10.8      2.260      8.792
REMARK SMILES CCc1ncnc2c1CC1=Cn3ccc4nc(=N)nc5c-4c3N(C1=N2)[C@H]1N=CC=CN51
REMARK SMILES IDX 11 1 10 2 9 3 24 4 8 5 12 6 13 7 22 8 7 9 23 10 21 11 20 12
REMARK SMILES IDX 26 13 15 14 31 15 30 16 14 17 3 18 6 19 5 20 25 21 16 22
REMARK SMILES IDX 17 23 19 24 4 25 18 26 29 27 27 28 28 29 2 31 1 32
REMARK H PARENT 18 30
REMARK Flexibility Score: inf
ROOT
ATOM      1  C   UNL     1     -29.945  -9.813 144.593  1.00  0.00     0.100 C 
ATOM      2  C   UNL     1     -29.399 -10.906 144.675  1.00  0.00     0.016 C 
ATOM      3  C   UNL     1     -29.413 -11.742 145.790  1.00  0.00     0.082 C 
ATOM      4  C   UNL     1     -28.565 -11.534 143.595  1.00  0.00     0.144 C 
ATOM      5  C   UNL     1     -28.400 -12.538 146.267  1.00  0.00     0.023 A 
ATOM      6  N   UNL     1     -29.839  -9.020 143.352  1.00  0.00    -0.309 N 
ATOM      7  C   UNL     1     -30.494  -7.939 143.062  1.00  0.00     0.095 A 
ATOM      8  C   UNL     1     -29.007  -9.630 142.475  1.00  0.00     0.135 A 
ATOM      9  C   UNL     1     -27.377 -12.755 145.244  1.00  0.00     0.161 A 
ATOM     10  N   UNL     1     -28.427 -10.853 142.459  1.00  0.00    -0.269 N 
ATOM     11  C   UNL     1     -28.822  -9.093 141.163  1.00  0.00     0.085 A 
ATOM     12  C   UNL     1     -28.142  -9.734 140.171  1.00  0.00     0.153 A 
ATOM     13  C   UNL     1     -27.682 -11.436 141.479  1.00  0.00     0.316 C 
ATOM     14  C   UNL     1     -29.421  -7.675 140.741  1.00  0.00     0.083 A 
ATOM     15  N   UNL     1     -27.690 -10.865 140.342  1.00  0.00    -0.292 N 
ATOM     16  C   UNL     1     -27.128 -11.685 139.231  1.00  0.00     0.093 C 
ATOM     17  C   UNL     1     -30.246  -7.274 141.853  1.00  0.00     0.048 A 
ATOM     18  C   UNL     1     -28.483 -13.547 147.294  1.00  0.00     0.049 A 
ATOM     19  N   UNL     1     -26.290 -13.637 145.544  1.00  0.00    -0.217 NA
ATOM     20  C   UNL     1     -26.286 -14.254 146.721  1.00  0.00     0.224 A 
ATOM     21  N   UNL     1     -27.499 -12.441 143.949  1.00  0.00    -0.210 NA
ATOM     22  N   UNL     1     -29.073  -7.075 139.690  1.00  0.00    -0.211 NA
ATOM     23  C   UNL     1     -28.274  -7.915 138.778  1.00  0.00     0.244 A 
ATOM     24  N   UNL     1     -27.852  -9.085 138.968  1.00  0.00    -0.193 NA
ATOM     25  N   UNL     1     -27.288 -14.294 147.597  1.00  0.00    -0.241 NA
ATOM     26  N   UNL     1     -27.950  -7.253 137.748  1.00  0.00    -0.265 NA
ATOM     27  C   UNL     1     -26.843 -13.026 139.628  1.00  0.00     0.038 C 
ATOM     28  N   UNL     1     -27.244 -12.841 141.612  1.00  0.00    -0.247 NA
ATOM     29  C   UNL     1     -27.018 -13.431 140.653  1.00  0.00     0.111 C 
ATOM     30  H   UNL     1      42.234 -62.855  25.661  1.00  0.00     0.191 HD
ENDROOT
BRANCH  18  31
ATOM     31  C   UNL     1     -29.587 -13.545 148.174  1.00  0.00     0.053 C 
ATOM     32  C   UNL     1     -29.835 -14.951 148.620  1.00  0.00     0.011 C 
ENDBRANCH  18  31
TORSDOF 1
ENDMDL
MODEL 3
REMARK VINA RESULT:     -10.7      3.870      7.470
REMARK SMILES CCc1ncnc2c1CC1=Cn3ccc4nc(=N)nc5c-4c3N(C1=N2)[C@H]1N=CC=CN51
REMARK SMILES IDX 11 1 10 2 9 3 24 4 8 5 12 6 13 7 22 8 7 9 23 10 21 11 20 12
REMARK SMILES IDX 26 13 15 14 31 15 30 16 14 17 3 18 6 19 5 20 25 21 16 22
REMARK SMILES IDX 17 23 19 24 4 25 18 26 29 27 27 28 28 29 2 31 1 32
REMARK H PARENT 18 30
REMARK Flexibility Score: inf
ROOT
ATOM      1  C   UNL     1     -30.314 -12.678 148.152  1.00  0.00     0.100 C 
ATOM      2  C   UNL     1     -29.545 -13.631 148.134  1.00  0.00     0.016 C 
ATOM      3  C   UNL     1     -28.430 -13.763 147.308  1.00  0.00     0.082 C 
ATOM      4  C   UNL     1     -29.690 -14.869 148.972  1.00  0.00     0.144 C 
ATOM      5  C   UNL     1     -27.951 -14.899 146.702  1.00  0.00     0.023 A 
ATOM      6  N   UNL     1     -31.471 -12.674 149.070  1.00  0.00    -0.309 N 
ATOM      7  C   UNL     1     -32.262 -11.677 149.318  1.00  0.00     0.095 A 
ATOM      8  C   UNL     1     -31.560 -13.858 149.720  1.00  0.00     0.135 A 
ATOM      9  C   UNL     1     -28.499 -16.100 147.332  1.00  0.00     0.161 A 
ATOM     10  N   UNL     1     -30.726 -14.921 149.808  1.00  0.00    -0.269 N 
ATOM     11  C   UNL     1     -32.549 -14.053 150.732  1.00  0.00     0.085 A 
ATOM     12  C   UNL     1     -32.595 -15.145 151.547  1.00  0.00     0.153 A 
ATOM     13  C   UNL     1     -30.841 -16.040 150.575  1.00  0.00     0.316 C 
ATOM     14  C   UNL     1     -33.697 -12.979 151.006  1.00  0.00     0.083 A 
ATOM     15  N   UNL     1     -31.728 -16.016 151.488  1.00  0.00    -0.292 N 
ATOM     16  C   UNL     1     -31.619 -17.113 152.491  1.00  0.00     0.093 C 
ATOM     17  C   UNL     1     -33.350 -11.845 150.187  1.00  0.00     0.048 A 
ATOM     18  C   UNL     1     -26.692 -15.068 146.020  1.00  0.00     0.049 A 
ATOM     19  N   UNL     1     -28.036 -17.378 146.881  1.00  0.00    -0.217 NA
ATOM     20  C   UNL     1     -27.093 -17.411 145.945  1.00  0.00     0.224 A 
ATOM     21  N   UNL     1     -29.179 -16.129 148.485  1.00  0.00    -0.210 NA
ATOM     22  N   UNL     1     -34.711 -13.230 151.710  1.00  0.00    -0.211 NA
ATOM     23  C   UNL     1     -34.601 -14.499 152.455  1.00  0.00     0.244 A 
ATOM     24  N   UNL     1     -33.682 -15.357 152.398  1.00  0.00    -0.193 NA
ATOM     25  N   UNL     1     -26.384 -16.376 145.500  1.00  0.00    -0.241 NA
ATOM     26  N   UNL     1     -35.651 -14.696 153.135  1.00  0.00    -0.265 NA
ATOM     27  C   UNL     1     -30.429 -17.887 152.330  1.00  0.00     0.038 C 
ATOM     28  N   UNL     1     -29.747 -17.031 150.618  1.00  0.00    -0.247 NA
ATOM     29  C   UNL     1     -29.657 -17.701 151.546  1.00  0.00     0.111 C 
ATOM     30  H   UNL     1     -52.885-124.669 243.634  1.00  0.00     0.191 HD
ENDROOT
BRANCH  18  31
ATOM     31  C   UNL     1     -25.979 -13.925 145.597  1.00  0.00     0.053 C 
ATOM     32  C   UNL     1     -24.786 -13.761 146.485  1.00  0.00     0.011 C 
ENDBRANCH  18  31
TORSDOF 1
ENDMDL
MODEL 4
REMARK VINA RESULT:     -10.6      2.068      8.299
REMARK SMILES CCc1ncnc2c1CC1=Cn3ccc4nc(=N)nc5c-4c3N(C1=N2)[C@H]1N=CC=CN51
REMARK SMILES IDX 11 1 10 2 9 3 24 4 8 5 12 6 13 7 22 8 7 9 23 10 21 11 20 12
REMARK SMILES IDX 26 13 15 14 31 15 30 16 14 17 3 18 6 19 5 20 25 21 16 22
REMARK SMILES IDX 17 23 19 24 4 25 18 26 29 27 27 28 28 29 2 31 1 32
REMARK H PARENT 18 30
REMARK Flexibility Score: inf
ROOT
ATOM      1  C   UNL     1     -28.719 -12.153 145.961  1.00  0.00     0.100 C 
ATOM      2  C   UNL     1     -28.017 -13.008 145.434  1.00  0.00     0.016 C 
ATOM      3  C   UNL     1     -27.501 -14.139 146.064  1.00  0.00     0.082 C 
ATOM      4  C   UNL     1     -27.539 -12.971 144.011  1.00  0.00     0.144 C 
ATOM      5  C   UNL     1     -26.274 -14.729 145.878  1.00  0.00     0.023 A 
ATOM      6  N   UNL     1     -29.188 -10.992 145.180  1.00  0.00    -0.309 N 
ATOM      7  C   UNL     1     -30.062 -10.109 145.551  1.00  0.00     0.095 A 
ATOM      8  C   UNL     1     -28.642 -11.007 143.942  1.00  0.00     0.135 A 
ATOM      9  C   UNL     1     -25.665 -14.288 144.622  1.00  0.00     0.161 A 
ATOM     10  N   UNL     1     -27.925 -11.936 143.266  1.00  0.00    -0.269 N 
ATOM     11  C   UNL     1     -29.025 -10.030 142.972  1.00  0.00     0.085 A 
ATOM     12  C   UNL     1     -28.656 -10.077 141.660  1.00  0.00     0.153 A 
ATOM     13  C   UNL     1     -27.499 -11.917 141.973  1.00  0.00     0.316 C 
ATOM     14  C   UNL     1     -29.947  -8.783 143.351  1.00  0.00     0.083 A 
ATOM     15  N   UNL     1     -28.003 -11.022 141.221  1.00  0.00    -0.292 N 
ATOM     16  C   UNL     1     -27.757 -11.223 139.764  1.00  0.00     0.093 C 
ATOM     17  C   UNL     1     -30.371  -9.032 144.707  1.00  0.00     0.048 A 
ATOM     18  C   UNL     1     -25.826 -16.006 146.377  1.00  0.00     0.049 A 
ATOM     19  N   UNL     1     -24.420 -14.874 144.226  1.00  0.00    -0.217 NA
ATOM     20  C   UNL     1     -23.899 -15.825 144.995  1.00  0.00     0.224 A 
ATOM     21  N   UNL     1     -26.290 -13.602 143.658  1.00  0.00    -0.210 NA
ATOM     22  N   UNL     1     -30.097  -7.790 142.591  1.00  0.00    -0.211 NA
ATOM     23  C   UNL     1     -29.558  -8.010 141.235  1.00  0.00     0.244 A 
ATOM     24  N   UNL     1     -28.920  -9.006 140.804  1.00  0.00    -0.193 NA
ATOM     25  N   UNL     1     -24.502 -16.440 146.011  1.00  0.00    -0.241 NA
ATOM     26  N   UNL     1     -29.732  -6.976 140.525  1.00  0.00    -0.265 NA
ATOM     27  C   UNL     1     -27.144 -12.481 139.480  1.00  0.00     0.038 C 
ATOM     28  N   UNL     1     -26.832 -13.099 141.390  1.00  0.00    -0.247 NA
ATOM     29  C   UNL     1     -26.876 -13.241 140.252  1.00  0.00     0.111 C 
ATOM     30  H   UNL     1       3.318   0.871   1.144  1.00  0.00     0.191 HD
ENDROOT
BRANCH  18  31
ATOM     31  C   UNL     1     -26.528 -16.613 147.441  1.00  0.00     0.053 C 
ATOM     32  C   UNL     1     -25.646 -16.605 148.650  1.00  0.00     0.011 C 
ENDBRANCH  18  31
TORSDOF 1
ENDMDL
MODEL 5
REMARK VINA RESULT:     -10.6      1.732      4.295
REMARK SMILES CCc1ncnc2c1CC1=Cn3ccc4nc(=N)nc5c-4c3N(C1=N2)[C@H]1N=CC=CN51
REMARK SMILES IDX 11 1 10 2 9 3 24 4 8 5 12 6 13 7 22 8 7 9 23 10 21 11 20 12
REMARK SMILES IDX 26 13 15 14 31 15 30 16 14 17 3 18 6 19 5 20 25 21 16 22
REMARK SMILES IDX 17 23 19 24 4 25 18 26 29 27 27 28 28 29 2 31 1 32
REMARK H PARENT 18 30
REMARK Flexibility Score: inf
ROOT
ATOM      1  C   UNL     1     -29.942 -10.870 145.681  1.00  0.00     0.100 C 
ATOM      2  C   UNL     1     -29.153 -10.845 144.745  1.00  0.00     0.016 C 
ATOM      3  C   UNL     1     -29.102  -9.872 143.748  1.00  0.00     0.082 C 
ATOM      4  C   UNL     1     -28.115 -11.895 144.467  1.00  0.00     0.144 C 
ATOM      5  C   UNL     1     -28.828 -10.038 142.412  1.00  0.00     0.023 A 
ATOM      6  N   UNL     1     -29.897 -11.972 146.662  1.00  0.00    -0.309 N 
ATOM      7  C   UNL     1     -30.548 -12.043 147.782  1.00  0.00     0.095 A 
ATOM      8  C   UNL     1     -28.990 -12.902 146.283  1.00  0.00     0.135 A 
ATOM      9  C   UNL     1     -28.178 -11.326 142.166  1.00  0.00     0.161 A 
ATOM     10  N   UNL     1     -28.042 -12.918 145.316  1.00  0.00    -0.269 N 
ATOM     11  C   UNL     1     -28.703 -14.018 147.128  1.00  0.00     0.085 A 
ATOM     12  C   UNL     1     -27.688 -14.899 146.903  1.00  0.00     0.153 A 
ATOM     13  C   UNL     1     -27.088 -13.858 145.065  1.00  0.00     0.316 C 
ATOM     14  C   UNL     1     -29.560 -14.322 148.441  1.00  0.00     0.083 A 
ATOM     15  N   UNL     1     -26.909 -14.740 145.965  1.00  0.00    -0.292 N 
ATOM     16  C   UNL     1     -25.668 -15.550 145.802  1.00  0.00     0.093 C 
ATOM     17  C   UNL     1     -30.431 -13.184 148.589  1.00  0.00     0.048 A 
ATOM     18  C   UNL     1     -28.578  -9.012 141.431  1.00  0.00     0.049 A 
ATOM     19  N   UNL     1     -27.742 -11.625 140.836  1.00  0.00    -0.217 NA
ATOM     20  C   UNL     1     -27.906 -10.699 139.896  1.00  0.00     0.224 A 
ATOM     21  N   UNL     1     -27.687 -12.138 143.110  1.00  0.00    -0.210 NA
ATOM     22  N   UNL     1     -29.490 -15.417 149.060  1.00  0.00    -0.211 NA
ATOM     23  C   UNL     1     -28.370 -16.267 148.614  1.00  0.00     0.244 A 
ATOM     24  N   UNL     1     -27.566 -16.062 147.668  1.00  0.00    -0.193 NA
ATOM     25  N   UNL     1     -28.265  -9.432 140.088  1.00  0.00    -0.241 NA
ATOM     26  N   UNL     1     -28.361 -17.352 149.268  1.00  0.00    -0.265 NA
ATOM     27  C   UNL     1     -24.828 -15.062 144.756  1.00  0.00     0.038 C 
ATOM     28  N   UNL     1     -26.062 -13.620 144.030  1.00  0.00    -0.247 NA
ATOM     29  C   UNL     1     -25.059 -14.172 144.123  1.00  0.00     0.111 C 
ATOM     30  H   UNL     1      73.279-117.756 136.252  1.00  0.00     0.191 HD
ENDROOT
BRANCH  18  31
ATOM     31  C   UNL     1     -28.963  -7.683 141.711  1.00  0.00     0.053 C 
ATOM     32  C   UNL     1     -29.609  -7.113 140.488  1.00  0.00     0.011 C 
ENDBRANCH  18  31
TORSDOF 1
ENDMDL
MODEL 6
REMARK VINA RESULT:     -10.1      2.689      6.206
REMARK SMILES CCc1ncnc2c1CC1=Cn3ccc4nc(=N)nc5c-4c3N(C1=N2)[C@H]1N=CC=CN51
REMARK SMILES IDX 11 1 10 2 9 3 24 4 8 5 12 6 13 7 22 8 7 9 23 10 21 11 20 12
REMARK SMILES IDX 26 13 15 14 31 15 30 16 14 17 3 18 6 19 5 20 25 21 16 22
REMARK SMILES IDX 17 23 19 24 4 25 18 26 29 27 27 28 28 29 2 31 1 32
REMARK H PARENT 18 30
REMARK Flexibility Score: inf
ROOT
ATOM      1  C   UNL     1     -27.820 -16.724 147.878  1.00  0.00     0.100 C 
ATOM      2  C   UNL     1     -27.322 -15.980 147.043  1.00  0.00     0.016 C 
ATOM      3  C   UNL     1     -26.249 -16.292 146.210  1.00  0.00     0.082 C 
ATOM      4  C   UNL     1     -27.749 -14.562 146.792  1.00  0.00     0.144 C 
ATOM      5  C   UNL     1     -25.226 -15.472 145.800  1.00  0.00     0.023 A 
ATOM      6  N   UNL     1     -28.949 -16.260 148.709  1.00  0.00    -0.309 N 
ATOM      7  C   UNL     1     -29.677 -16.981 149.503  1.00  0.00     0.095 A 
ATOM      8  C   UNL     1     -29.206 -14.953 148.466  1.00  0.00     0.135 A 
ATOM      9  C   UNL     1     -25.571 -14.063 145.997  1.00  0.00     0.161 A 
ATOM     10  N   UNL     1     -28.756 -14.090 147.524  1.00  0.00    -0.269 N 
ATOM     11  C   UNL     1     -30.320 -14.308 149.086  1.00  0.00     0.085 A 
ATOM     12  C   UNL     1     -30.745 -13.054 148.765  1.00  0.00     0.153 A 
ATOM     13  C   UNL     1     -29.147 -12.808 147.280  1.00  0.00     0.316 C 
ATOM     14  C   UNL     1     -31.183 -15.026 150.221  1.00  0.00     0.083 A 
ATOM     15  N   UNL     1     -30.211 -12.418 147.858  1.00  0.00    -0.292 N 
ATOM     16  C   UNL     1     -30.771 -11.139 147.333  1.00  0.00     0.093 C 
ATOM     17  C   UNL     1     -30.692 -16.380 150.262  1.00  0.00     0.048 A 
ATOM     18  C   UNL     1     -24.237 -15.739 144.784  1.00  0.00     0.049 A 
ATOM     19  N   UNL     1     -24.651 -13.066 145.540  1.00  0.00    -0.217 NA
ATOM     20  C   UNL     1     -23.548 -13.466 144.915  1.00  0.00     0.224 A 
ATOM     21  N   UNL     1     -26.789 -13.601 146.302  1.00  0.00    -0.210 NA
ATOM     22  N   UNL     1     -32.002 -14.404 150.948  1.00  0.00    -0.211 NA
ATOM     23  C   UNL     1     -32.271 -13.031 150.478  1.00  0.00     0.244 A 
ATOM     24  N   UNL     1     -31.730 -12.416 149.523  1.00  0.00    -0.193 NA
ATOM     25  N   UNL     1     -23.282 -14.700 144.492  1.00  0.00    -0.241 NA
ATOM     26  N   UNL     1     -33.094 -12.460 151.254  1.00  0.00    -0.265 NA
ATOM     27  C   UNL     1     -30.093 -10.684 146.161  1.00  0.00     0.038 C 
ATOM     28  N   UNL     1     -28.614 -12.076 146.113  1.00  0.00    -0.247 NA
ATOM     29  C   UNL     1     -29.240 -11.218 145.678  1.00  0.00     0.111 C 
ATOM     30  H   UNL     1     -86.824 118.577 128.375  1.00  0.00     0.191 HD
ENDROOT
BRANCH  18  31
ATOM     31  C   UNL     1     -24.024 -17.069 144.365  1.00  0.00     0.053 C 
ATOM     32  C   UNL     1     -23.619 -17.878 145.556  1.00  0.00     0.011 C 
ENDBRANCH  18  31
TORSDOF 1
ENDMDL
MODEL 7
REMARK VINA RESULT:      -9.8      1.705      3.940
REMARK SMILES CCc1ncnc2c1CC1=Cn3ccc4nc(=N)nc5c-4c3N(C1=N2)[C@H]1N=CC=CN51
REMARK SMILES IDX 11 1 10 2 9 3 24 4 8 5 12 6 13 7 22 8 7 9 23 10 21 11 20 12
REMARK SMILES IDX 26 13 15 14 31 15 30 16 14 17 3 18 6 19 5 20 25 21 16 22
REMARK SMILES IDX 17 23 19 24 4 25 18 26 29 27 27 28 28 29 2 31 1 32
REMARK H PARENT 18 30
REMARK Flexibility Score: inf
ROOT
ATOM      1  C   UNL     1     -29.880 -12.722 146.433  1.00  0.00     0.100 C 
ATOM      2  C   UNL     1     -29.284 -11.948 145.695  1.00  0.00     0.016 C 
ATOM      3  C   UNL     1     -29.852 -10.877 145.008  1.00  0.00     0.082 C 
ATOM      4  C   UNL     1     -27.825 -12.039 145.352  1.00  0.00     0.144 C 
ATOM      5  C   UNL     1     -29.552 -10.422 143.747  1.00  0.00     0.023 A 
ATOM      6  N   UNL     1     -29.157 -13.829 147.091  1.00  0.00    -0.309 N 
ATOM      7  C   UNL     1     -29.613 -14.613 148.017  1.00  0.00     0.095 A 
ATOM      8  C   UNL     1     -27.875 -13.874 146.659  1.00  0.00     0.135 A 
ATOM      9  C   UNL     1     -28.253 -10.928 143.302  1.00  0.00     0.161 A 
ATOM     10  N   UNL     1     -27.129 -13.029 145.910  1.00  0.00    -0.269 N 
ATOM     11  C   UNL     1     -26.954 -14.807 147.227  1.00  0.00     0.085 A 
ATOM     12  C   UNL     1     -25.615 -14.802 146.973  1.00  0.00     0.153 A 
ATOM     13  C   UNL     1     -25.803 -13.095 145.605  1.00  0.00     0.316 C 
ATOM     14  C   UNL     1     -27.428 -15.948 148.239  1.00  0.00     0.083 A 
ATOM     15  N   UNL     1     -25.109 -13.933 146.265  1.00  0.00    -0.292 N 
ATOM     16  C   UNL     1     -23.634 -13.762 146.130  1.00  0.00     0.093 C 
ATOM     17  C   UNL     1     -28.812 -15.652 148.512  1.00  0.00     0.048 A 
ATOM     18  C   UNL     1     -29.996  -9.199 143.123  1.00  0.00     0.049 A 
ATOM     19  N   UNL     1     -27.743 -10.479 142.042  1.00  0.00    -0.217 NA
ATOM     20  C   UNL     1     -28.451  -9.587 141.357  1.00  0.00     0.224 A 
ATOM     21  N   UNL     1     -27.355 -11.545 144.079  1.00  0.00    -0.210 NA
ATOM     22  N   UNL     1     -26.695 -16.920 148.560  1.00  0.00    -0.211 NA
ATOM     23  C   UNL     1     -25.294 -16.762 148.123  1.00  0.00     0.244 A 
ATOM     24  N   UNL     1     -24.797 -15.841 147.424  1.00  0.00    -0.193 NA
ATOM     25  N   UNL     1     -29.509  -8.910 141.798  1.00  0.00    -0.241 NA
ATOM     26  N   UNL     1     -24.614 -17.773 148.468  1.00  0.00    -0.265 NA
ATOM     27  C   UNL     1     -23.282 -12.578 145.415  1.00  0.00     0.038 C 
ATOM     28  N   UNL     1     -25.150 -11.993 144.870  1.00  0.00    -0.247 NA
ATOM     29  C   UNL     1     -24.019 -11.849 145.000  1.00  0.00     0.111 C 
ATOM     30  H   UNL     1     117.037 -29.379 128.940  1.00  0.00     0.191 HD
ENDROOT
BRANCH  18  31
ATOM     31  C   UNL     1     -31.110  -8.519 143.660  1.00  0.00     0.053 C 
ATOM     32  C   UNL     1     -31.122  -7.129 143.106  1.00  0.00     0.011 C 
ENDBRANCH  18  31
TORSDOF 1
ENDMDL
MODEL 8
REMARK VINA RESULT:      -9.4      2.665      6.203
REMARK SMILES CCc1ncnc2c1CC1=Cn3ccc4nc(=N)nc5c-4c3N(C1=N2)[C@H]1N=CC=CN51
REMARK SMILES IDX 11 1 10 2 9 3 24 4 8 5 12 6 13 7 22 8 7 9 23 10 21 11 20 12
REMARK SMILES IDX 26 13 15 14 31 15 30 16 14 17 3 18 6 19 5 20 25 21 16 22
REMARK SMILES IDX 17 23 19 24 4 25 18 26 29 27 27 28 28 29 2 31 1 32
REMARK H PARENT 18 30
REMARK Flexibility Score: inf
ROOT
ATOM      1  C   UNL     1     -29.367 -11.541 147.060  1.00  0.00     0.100 C 
ATOM      2  C   UNL     1     -29.857 -12.562 147.526  1.00  0.00     0.016 C 
ATOM      3  C   UNL     1     -31.058 -12.642 148.228  1.00  0.00     0.082 C 
ATOM      4  C   UNL     1     -29.224 -13.923 147.470  1.00  0.00     0.144 C 
ATOM      5  C   UNL     1     -31.360 -13.437 149.307  1.00  0.00     0.023 A 
ATOM      6  N   UNL     1     -28.074 -11.595 146.349  1.00  0.00    -0.309 N 
ATOM      7  C   UNL     1     -27.523 -10.640 145.666  1.00  0.00     0.095 A 
ATOM      8  C   UNL     1     -27.549 -12.840 146.421  1.00  0.00     0.135 A 
ATOM      9  C   UNL     1     -30.402 -14.536 149.434  1.00  0.00     0.161 A 
ATOM     10  N   UNL     1     -28.049 -14.023 146.849  1.00  0.00    -0.269 N 
ATOM     11  C   UNL     1     -26.343 -13.157 145.723  1.00  0.00     0.085 A 
ATOM     12  C   UNL     1     -25.845 -14.420 145.604  1.00  0.00     0.153 A 
ATOM     13  C   UNL     1     -27.489 -15.263 146.790  1.00  0.00     0.316 C 
ATOM     14  C   UNL     1     -25.469 -12.034 145.000  1.00  0.00     0.083 A 
ATOM     15  N   UNL     1     -26.457 -15.387 146.055  1.00  0.00    -0.292 N 
ATOM     16  C   UNL     1     -26.062 -16.795 145.769  1.00  0.00     0.093 C 
ATOM     17  C   UNL     1     -26.262 -10.833 145.083  1.00  0.00     0.048 A 
ATOM     18  C   UNL     1     -32.656 -13.664 149.898  1.00  0.00     0.049 A 
ATOM     19  N   UNL     1     -30.620 -15.515 150.456  1.00  0.00    -0.217 NA
ATOM     20  C   UNL     1     -31.708 -15.405 151.211  1.00  0.00     0.224 A 
ATOM     21  N   UNL     1     -29.499 -14.886 148.510  1.00  0.00    -0.210 NA
ATOM     22  N   UNL     1     -24.294 -12.241 144.595  1.00  0.00    -0.211 NA
ATOM     23  C   UNL     1     -23.915 -13.667 144.618  1.00  0.00     0.244 A 
ATOM     24  N   UNL     1     -24.578 -14.641 145.058  1.00  0.00    -0.193 NA
ATOM     25  N   UNL     1     -32.735 -14.583 151.005  1.00  0.00    -0.241 NA
ATOM     26  N   UNL     1     -22.724 -13.806 144.208  1.00  0.00    -0.265 NA
ATOM     27  C   UNL     1     -27.025 -17.741 146.237  1.00  0.00     0.038 C 
ATOM     28  N   UNL     1     -28.263 -16.451 147.203  1.00  0.00    -0.247 NA
ATOM     29  C   UNL     1     -27.974 -17.470 146.758  1.00  0.00     0.111 C 
ATOM     30  H   UNL     1      41.171-140.926 125.798  1.00  0.00     0.191 HD
ENDROOT
BRANCH  18  31
ATOM     31  C   UNL     1     -33.707 -12.766 149.616  1.00  0.00     0.053 C 
ATOM     32  C   UNL     1     -33.530 -11.552 150.472  1.00  0.00     0.011 C 
ENDBRANCH  18  31
TORSDOF 1
ENDMDL
MODEL 9
REMARK VINA RESULT:      -9.2      0.918      1.006
REMARK SMILES CCc1ncnc2c1CC1=Cn3ccc4nc(=N)nc5c-4c3N(C1=N2)[C@H]1N=CC=CN51
REMARK SMILES IDX 11 1 10 2 9 3 24 4 8 5 12 6 13 7 22 8 7 9 23 10 21 11 20 12
REMARK SMILES IDX 26 13 15 14 31 15 30 16 14 17 3 18 6 19 5 20 25 21 16 22
REMARK SMILES IDX 17 23 19 24 4 25 18 26 29 27 27 28 28 29 2 31 1 32
REMARK H PARENT 18 30
REMARK Flexibility Score: inf
ROOT
ATOM      1  C   UNL     1     -25.395 -14.794 144.459  1.00  0.00     0.100 C 
ATOM      2  C   UNL     1     -26.408 -14.106 144.446  1.00  0.00     0.016 C 
ATOM      3  C   UNL     1     -26.769 -13.207 143.444  1.00  0.00     0.082 C 
ATOM      4  C   UNL     1     -27.436 -14.068 145.540  1.00  0.00     0.144 C 
ATOM      5  C   UNL     1     -27.387 -11.987 143.579  1.00  0.00     0.023 A 
ATOM      6  N   UNL     1     -25.125 -15.698 145.595  1.00  0.00    -0.309 N 
ATOM      7  C   UNL     1     -24.193 -16.597 145.667  1.00  0.00     0.095 A 
ATOM      8  C   UNL     1     -26.060 -15.533 146.559  1.00  0.00     0.135 A 
ATOM      9  C   UNL     1     -28.023 -11.864 144.891  1.00  0.00     0.161 A 
ATOM     10  N   UNL     1     -27.232 -14.857 146.594  1.00  0.00    -0.269 N 
ATOM     11  C   UNL     1     -26.058 -16.370 147.717  1.00  0.00     0.085 A 
ATOM     12  C   UNL     1     -27.058 -16.385 148.644  1.00  0.00     0.153 A 
ATOM     13  C   UNL     1     -28.177 -14.827 147.575  1.00  0.00     0.316 C 
ATOM     14  C   UNL     1     -24.866 -17.388 148.018  1.00  0.00     0.083 A 
ATOM     15  N   UNL     1     -28.068 -15.699 148.496  1.00  0.00    -0.292 N 
ATOM     16  C   UNL     1     -29.270 -15.838 149.366  1.00  0.00     0.093 C 
ATOM     17  C   UNL     1     -24.037 -17.350 146.840  1.00  0.00     0.048 A 
ATOM     18  C   UNL     1     -27.938 -11.159 142.535  1.00  0.00     0.049 A 
ATOM     19  N   UNL     1     -28.790 -10.688 145.169  1.00  0.00    -0.217 NA
ATOM     20  C   UNL     1     -28.927  -9.783 144.204  1.00  0.00     0.224 A 
ATOM     21  N   UNL     1     -28.204 -12.866 145.760  1.00  0.00    -0.210 NA
ATOM     22  N   UNL     1     -24.718 -17.951 149.135  1.00  0.00    -0.211 NA
ATOM     23  C   UNL     1     -25.879 -17.783 150.030  1.00  0.00     0.244 A 
ATOM     24  N   UNL     1     -26.917 -17.099 149.836  1.00  0.00    -0.193 NA
ATOM     25  N   UNL     1     -28.584  -9.931 142.926  1.00  0.00    -0.241 NA
ATOM     26  N   UNL     1     -25.664 -18.364 151.135  1.00  0.00    -0.265 NA
ATOM     27  C   UNL     1     -30.382 -15.080 148.890  1.00  0.00     0.038 C 
ATOM     28  N   UNL     1     -29.454 -14.119 147.359  1.00  0.00    -0.247 NA
ATOM     29  C   UNL     1     -30.369 -14.451 147.968  1.00  0.00     0.111 C 
ATOM     30  H   UNL     1    -122.582 -28.410 256.429  1.00  0.00     0.191 HD
ENDROOT
BRANCH  18  31
ATOM     31  C   UNL     1     -27.549 -11.388 141.198  1.00  0.00     0.053 C 
ATOM     32  C   UNL     1     -28.755 -11.825 140.426  1.00  0.00     0.011 C 
ENDBRANCH  18  31
TORSDOF 1
ENDMDL
MODEL 10
REMARK VINA RESULT:      -8.0      1.895      3.532
REMARK SMILES CCc1ncnc2c1CC1=Cn3ccc4nc(=N)nc5c-4c3N(C1=N2)[C@H]1N=CC=CN51
REMARK SMILES IDX 11 1 10 2 9 3 24 4 8 5 12 6 13 7 22 8 7 9 23 10 21 11 20 12
REMARK SMILES IDX 26 13 15 14 31 15 30 16 14 17 3 18 6 19 5 20 25 21 16 22
REMARK SMILES IDX 17 23 19 24 4 25 18 26 29 27 27 28 28 29 2 31 1 32
REMARK H PARENT 18 30
REMARK Flexibility Score: inf
ROOT
ATOM      1  C   UNL     1     -27.312 -12.053 141.390  1.00  0.00     0.100 C 
ATOM      2  C   UNL     1     -28.072 -11.147 141.704  1.00  0.00     0.016 C 
ATOM      3  C   UNL     1     -28.550 -10.152 140.852  1.00  0.00     0.082 C 
ATOM      4  C   UNL     1     -28.599 -10.908 143.090  1.00  0.00     0.144 C 
ATOM      5  C   UNL     1     -28.775  -8.827 141.136  1.00  0.00     0.023 A 
ATOM      6  N   UNL     1     -26.870 -13.037 142.399  1.00  0.00    -0.309 N 
ATOM      7  C   UNL     1     -26.211 -14.132 142.180  1.00  0.00     0.095 A 
ATOM      8  C   UNL     1     -27.331 -12.692 143.624  1.00  0.00     0.135 A 
ATOM      9  C   UNL     1     -28.850  -8.605 142.581  1.00  0.00     0.161 A 
ATOM     10  N   UNL     1     -28.221 -11.760 144.041  1.00  0.00    -0.269 N 
ATOM     11  C   UNL     1     -27.108 -13.548 144.746  1.00  0.00     0.085 A 
ATOM     12  C   UNL     1     -27.682 -13.360 145.969  1.00  0.00     0.153 A 
ATOM     13  C   UNL     1     -28.715 -11.545 145.292  1.00  0.00     0.316 C 
ATOM     14  C   UNL     1     -26.160 -14.828 144.654  1.00  0.00     0.083 A 
ATOM     15  N   UNL     1     -28.488 -12.451 146.156  1.00  0.00    -0.292 N 
ATOM     16  C   UNL     1     -29.295 -12.334 147.405  1.00  0.00     0.093 C 
ATOM     17  C   UNL     1     -25.825 -14.943 143.256  1.00  0.00     0.048 A 
ATOM     18  C   UNL     1     -29.455  -7.854 140.317  1.00  0.00     0.049 A 
ATOM     19  N   UNL     1     -29.170  -7.292 143.053  1.00  0.00    -0.217 NA
ATOM     20  C   UNL     1     -29.429  -6.346 142.156  1.00  0.00     0.224 A 
ATOM     21  N   UNL     1     -28.935  -9.567 143.508  1.00  0.00    -0.210 NA
ATOM     22  N   UNL     1     -25.756 -15.451 145.671  1.00  0.00    -0.211 NA
ATOM     23  C   UNL     1     -26.445 -15.047 146.912  1.00  0.00     0.244 A 
ATOM     24  N   UNL     1     -27.293 -14.131 147.067  1.00  0.00    -0.193 NA
ATOM     25  N   UNL     1     -29.613  -6.524 140.850  1.00  0.00    -0.241 NA
ATOM     26  N   UNL     1     -25.988 -15.702 147.895  1.00  0.00    -0.265 NA
ATOM     27  C   UNL     1     -30.295 -11.319 147.319  1.00  0.00     0.038 C 
ATOM     28  N   UNL     1     -29.782 -10.548 145.510  1.00  0.00    -0.247 NA
ATOM     29  C   UNL     1     -30.468 -10.677 146.422  1.00  0.00     0.111 C 
ATOM     30  H   UNL     1     -78.111  -6.485 281.234  1.00  0.00     0.191 HD
ENDROOT
BRANCH  18  31
ATOM     31  C   UNL     1     -29.637  -8.119 138.943  1.00  0.00     0.053 C 
ATOM     32  C   UNL     1     -28.330  -7.908 138.247  1.00  0.00     0.011 C 
ENDBRANCH  18  31
TORSDOF 1
ENDMDL
