MODEL 1
REMARK VINA RESULT:      -8.5      0.000      0.000
REMARK SMILES Cc1cccc2c1CC=C1CC=CC=C12
REMARK SMILES IDX 4 1 5 2 6 3 7 4 3 5 2 6 15 7 14 8 10 9 9 10 8 11 1 12 13 13
REMARK SMILES IDX 12 14 11 15
REMARK H PARENT
REMARK Flexibility Score: inf
ROOT
ATOM      1  C   UNL     1     -27.205 -17.030 145.949  1.00  0.00     0.001 A 
ATOM      2  C   UNL     1     -26.181 -16.313 145.620  1.00  0.00     0.009 A 
ATOM      3  C   UNL     1     -26.108 -15.124 145.892  1.00  0.00    -0.014 A 
ATOM      4  C   UNL     1     -27.493 -14.657 146.376  1.00  0.00    -0.033 A 
ATOM      5  C   UNL     1     -28.369 -16.715 146.420  1.00  0.00     0.004 A 
ATOM      6  C   UNL     1     -28.531 -15.288 146.610  1.00  0.00    -0.047 A 
ATOM      7  C   UNL     1     -25.068 -14.145 145.649  1.00  0.00    -0.015 C 
ATOM      8  C   UNL     1     -23.998 -14.584 145.090  1.00  0.00     0.009 C 
ATOM      9  C   UNL     1     -25.107 -12.777 146.169  1.00  0.00    -0.040 C 
ATOM     10  C   UNL     1     -26.382 -12.285 146.544  1.00  0.00    -0.018 C 
ATOM     11  C   UNL     1     -27.600 -13.060 146.464  1.00  0.00     0.064 C 
ATOM     12  C   UNL     1     -29.880 -14.724 147.140  1.00  0.00     0.044 C 
ATOM     13  C   UNL     1     -23.069 -13.620 144.509  1.00  0.00    -0.003 C 
ATOM     14  C   UNL     1     -23.263 -12.303 144.937  1.00  0.00    -0.022 C 
ATOM     15  C   UNL     1     -24.339 -11.817 145.586  1.00  0.00     0.063 C 
ENDROOT
TORSDOF 0
ENDMDL
MODEL 2
REMARK VINA RESULT:      -8.4      4.850      5.867
REMARK SMILES Cc1cccc2c1CC=C1CC=CC=C12
REMARK SMILES IDX 4 1 5 2 6 3 7 4 3 5 2 6 15 7 14 8 10 9 9 10 8 11 1 12 13 13
REMARK SMILES IDX 12 14 11 15
REMARK H PARENT
REMARK Flexibility Score: inf
ROOT
ATOM      1  C   UNL     1     -28.312 -10.823 145.079  1.00  0.00     0.001 A 
ATOM      2  C   UNL     1     -28.305 -10.489 143.830  1.00  0.00     0.009 A 
ATOM      3  C   UNL     1     -28.066 -11.297 142.944  1.00  0.00    -0.014 A 
ATOM      4  C   UNL     1     -27.522 -12.579 143.600  1.00  0.00    -0.033 A 
ATOM      5  C   UNL     1     -27.935 -11.900 145.690  1.00  0.00     0.004 A 
ATOM      6  C   UNL     1     -27.416 -12.906 144.787  1.00  0.00    -0.047 A 
ATOM      7  C   UNL     1     -28.027 -11.157 141.503  1.00  0.00    -0.015 C 
ATOM      8  C   UNL     1     -28.339 -10.000 141.037  1.00  0.00     0.009 C 
ATOM      9  C   UNL     1     -27.844 -12.283 140.586  1.00  0.00    -0.040 C 
ATOM     10  C   UNL     1     -27.265 -13.453 141.138  1.00  0.00    -0.018 C 
ATOM     11  C   UNL     1     -26.887 -13.587 142.527  1.00  0.00     0.064 C 
ATOM     12  C   UNL     1     -26.886 -14.255 145.350  1.00  0.00     0.044 C 
ATOM     13  C   UNL     1     -27.994  -9.689 139.655  1.00  0.00    -0.003 C 
ATOM     14  C   UNL     1     -27.682 -10.806 138.872  1.00  0.00    -0.022 C 
ATOM     15  C   UNL     1     -27.415 -12.050 139.316  1.00  0.00     0.063 C 
ENDROOT
TORSDOF 0
ENDMDL
MODEL 3
REMARK VINA RESULT:      -8.3      2.654      4.485
REMARK SMILES Cc1cccc2c1CC=C1CC=CC=C12
REMARK SMILES IDX 4 1 5 2 6 3 7 4 3 5 2 6 15 7 14 8 10 9 9 10 8 11 1 12 13 13
REMARK SMILES IDX 12 14 11 15
REMARK H PARENT
REMARK Flexibility Score: inf
ROOT
ATOM      1  C   UNL     1     -30.638 -16.468 150.358  1.00  0.00     0.001 A 
ATOM      2  C   UNL     1     -29.810 -16.680 149.388  1.00  0.00     0.009 A 
ATOM      3  C   UNL     1     -29.408 -15.778 148.669  1.00  0.00    -0.014 A 
ATOM      4  C   UNL     1     -30.262 -14.528 148.947  1.00  0.00    -0.033 A 
ATOM      5  C   UNL     1     -31.336 -15.429 150.689  1.00  0.00     0.004 A 
ATOM      6  C   UNL     1     -31.133 -14.307 149.796  1.00  0.00    -0.047 A 
ATOM      7  C   UNL     1     -28.479 -15.778 147.558  1.00  0.00    -0.015 C 
ATOM      8  C   UNL     1     -27.926 -16.904 147.281  1.00  0.00     0.009 C 
ATOM      9  C   UNL     1     -28.017 -14.559 146.890  1.00  0.00    -0.040 C 
ATOM     10  C   UNL     1     -28.827 -13.408 147.055  1.00  0.00    -0.018 C 
ATOM     11  C   UNL     1     -30.034 -13.379 147.851  1.00  0.00     0.064 C 
ATOM     12  C   UNL     1     -31.916 -12.983 150.023  1.00  0.00     0.044 C 
ATOM     13  C   UNL     1     -27.262 -17.057 145.991  1.00  0.00    -0.003 C 
ATOM     14  C   UNL     1     -26.986 -15.852 145.338  1.00  0.00    -0.022 C 
ATOM     15  C   UNL     1     -27.491 -14.640 145.637  1.00  0.00     0.063 C 
ENDROOT
TORSDOF 0
ENDMDL
MODEL 4
REMARK VINA RESULT:      -8.3      6.810      8.022
REMARK SMILES Cc1cccc2c1CC=C1CC=CC=C12
REMARK SMILES IDX 4 1 5 2 6 3 7 4 3 5 2 6 15 7 14 8 10 9 9 10 8 11 1 12 13 13
REMARK SMILES IDX 12 14 11 15
REMARK H PARENT
REMARK Flexibility Score: inf
ROOT
ATOM      1  C   UNL     1     -28.993  -7.493 139.300  1.00  0.00     0.001 A 
ATOM      2  C   UNL     1     -28.467  -8.672 139.248  1.00  0.00     0.009 A 
ATOM      3  C   UNL     1     -28.538  -9.456 140.183  1.00  0.00    -0.014 A 
ATOM      4  C   UNL     1     -29.058  -8.689 141.412  1.00  0.00    -0.033 A 
ATOM      5  C   UNL     1     -29.506  -6.815 140.277  1.00  0.00     0.004 A 
ATOM      6  C   UNL     1     -29.479  -7.533 141.534  1.00  0.00    -0.047 A 
ATOM      7  C   UNL     1     -28.053 -10.812 140.338  1.00  0.00    -0.015 C 
ATOM      8  C   UNL     1     -27.480 -11.330 139.310  1.00  0.00     0.009 C 
ATOM      9  C   UNL     1     -28.349 -11.649 141.502  1.00  0.00    -0.040 C 
ATOM     10  C   UNL     1     -28.749 -10.967 142.679  1.00  0.00    -0.018 C 
ATOM     11  C   UNL     1     -28.899  -9.532 142.767  1.00  0.00     0.064 C 
ATOM     12  C   UNL     1     -30.026  -6.859 142.825  1.00  0.00     0.044 C 
ATOM     13  C   UNL     1     -26.676 -12.533 139.493  1.00  0.00    -0.003 C 
ATOM     14  C   UNL     1     -26.903 -13.201 140.700  1.00  0.00    -0.022 C 
ATOM     15  C   UNL     1     -27.556 -12.721 141.776  1.00  0.00     0.063 C 
ENDROOT
TORSDOF 0
ENDMDL
MODEL 5
REMARK VINA RESULT:      -8.3      4.529      6.198
REMARK SMILES Cc1cccc2c1CC=C1CC=CC=C12
REMARK SMILES IDX 4 1 5 2 6 3 7 4 3 5 2 6 15 7 14 8 10 9 9 10 8 11 1 12 13 13
REMARK SMILES IDX 12 14 11 15
REMARK H PARENT
REMARK Flexibility Score: inf
ROOT
ATOM      1  C   UNL     1     -28.882  -9.515 141.507  1.00  0.00     0.001 A 
ATOM      2  C   UNL     1     -28.777 -10.063 142.673  1.00  0.00     0.009 A 
ATOM      3  C   UNL     1     -28.170 -11.110 142.846  1.00  0.00    -0.014 A 
ATOM      4  C   UNL     1     -27.868 -11.721 141.466  1.00  0.00    -0.033 A 
ATOM      5  C   UNL     1     -28.589  -9.941 140.320  1.00  0.00     0.004 A 
ATOM      6  C   UNL     1     -28.039 -11.281 140.323  1.00  0.00    -0.047 A 
ATOM      7  C   UNL     1     -27.907 -11.881 144.044  1.00  0.00    -0.015 C 
ATOM      8  C   UNL     1     -28.337 -11.379 145.146  1.00  0.00     0.009 C 
ATOM      9  C   UNL     1     -27.040 -13.060 144.072  1.00  0.00    -0.040 C 
ATOM     10  C   UNL     1     -26.810 -13.699 142.829  1.00  0.00    -0.018 C 
ATOM     11  C   UNL     1     -27.353 -13.236 141.572  1.00  0.00     0.064 C 
ATOM     12  C   UNL     1     -27.659 -11.967 138.980  1.00  0.00     0.044 C 
ATOM     13  C   UNL     1     -28.417 -12.241 146.320  1.00  0.00    -0.003 C 
ATOM     14  C   UNL     1     -27.682 -13.426 146.217  1.00  0.00    -0.022 C 
ATOM     15  C   UNL     1     -27.156 -13.952 145.093  1.00  0.00     0.063 C 
ENDROOT
TORSDOF 0
ENDMDL
MODEL 6
REMARK VINA RESULT:      -8.3      5.780      6.770
REMARK SMILES Cc1cccc2c1CC=C1CC=CC=C12
REMARK SMILES IDX 4 1 5 2 6 3 7 4 3 5 2 6 15 7 14 8 10 9 9 10 8 11 1 12 13 13
REMARK SMILES IDX 12 14 11 15
REMARK H PARENT
REMARK Flexibility Score: inf
ROOT
ATOM      1  C   UNL     1     -27.355 -12.659 140.223  1.00  0.00     0.001 A 
ATOM      2  C   UNL     1     -27.936 -11.504 140.218  1.00  0.00     0.009 A 
ATOM      3  C   UNL     1     -28.123 -10.867 141.244  1.00  0.00    -0.014 A 
ATOM      4  C   UNL     1     -27.829 -11.790 142.440  1.00  0.00    -0.033 A 
ATOM      5  C   UNL     1     -27.020 -13.456 141.187  1.00  0.00     0.004 A 
ATOM      6  C   UNL     1     -27.367 -12.935 142.493  1.00  0.00    -0.047 A 
ATOM      7  C   UNL     1     -28.721  -9.568 141.471  1.00  0.00    -0.015 C 
ATOM      8  C   UNL     1     -29.092  -8.924 140.423  1.00  0.00     0.009 C 
ATOM      9  C   UNL     1     -28.742  -8.904 142.776  1.00  0.00    -0.040 C 
ATOM     10  C   UNL     1     -28.560  -9.739 143.907  1.00  0.00    -0.018 C 
ATOM     11  C   UNL     1     -28.335 -11.165 143.828  1.00  0.00     0.064 C 
ATOM     12  C   UNL     1     -27.068 -13.775 143.768  1.00  0.00     0.044 C 
ATOM     13  C   UNL     1     -29.997  -7.791 140.584  1.00  0.00    -0.003 C 
ATOM     14  C   UNL     1     -30.083  -7.303 141.892  1.00  0.00    -0.022 C 
ATOM     15  C   UNL     1     -29.646  -7.915 143.010  1.00  0.00     0.063 C 
ENDROOT
TORSDOF 0
ENDMDL
MODEL 7
REMARK VINA RESULT:      -8.2      4.079      4.987
REMARK SMILES Cc1cccc2c1CC=C1CC=CC=C12
REMARK SMILES IDX 4 1 5 2 6 3 7 4 3 5 2 6 15 7 14 8 10 9 9 10 8 11 1 12 13 13
REMARK SMILES IDX 12 14 11 15
REMARK H PARENT
REMARK Flexibility Score: inf
ROOT
ATOM      1  C   UNL     1     -27.687 -12.867 140.467  1.00  0.00     0.001 A 
ATOM      2  C   UNL     1     -27.248 -13.309 141.600  1.00  0.00     0.009 A 
ATOM      3  C   UNL     1     -27.453 -12.719 142.650  1.00  0.00    -0.014 A 
ATOM      4  C   UNL     1     -28.014 -11.325 142.314  1.00  0.00    -0.033 A 
ATOM      5  C   UNL     1     -28.226 -11.740 140.126  1.00  0.00     0.004 A 
ATOM      6  C   UNL     1     -28.356 -10.821 141.238  1.00  0.00    -0.047 A 
ATOM      7  C   UNL     1     -27.085 -13.033 144.015  1.00  0.00    -0.015 C 
ATOM      8  C   UNL     1     -26.471 -14.147 144.194  1.00  0.00     0.009 C 
ATOM      9  C   UNL     1     -27.537 -12.259 145.173  1.00  0.00    -0.040 C 
ATOM     10  C   UNL     1     -27.980 -10.939 144.910  1.00  0.00    -0.018 C 
ATOM     11  C   UNL     1     -28.030 -10.353 143.589  1.00  0.00     0.064 C 
ATOM     12  C   UNL     1     -28.955  -9.404 141.008  1.00  0.00     0.044 C 
ATOM     13  C   UNL     1     -25.775 -14.365 145.458  1.00  0.00    -0.003 C 
ATOM     14  C   UNL     1     -26.150 -13.488 146.481  1.00  0.00    -0.022 C 
ATOM     15  C   UNL     1     -26.852 -12.345 146.345  1.00  0.00     0.063 C 
ENDROOT
TORSDOF 0
ENDMDL
MODEL 8
REMARK VINA RESULT:      -8.2      0.879      4.448
REMARK SMILES Cc1cccc2c1CC=C1CC=CC=C12
REMARK SMILES IDX 4 1 5 2 6 3 7 4 3 5 2 6 15 7 14 8 10 9 9 10 8 11 1 12 13 13
REMARK SMILES IDX 12 14 11 15
REMARK H PARENT
REMARK Flexibility Score: inf
ROOT
ATOM      1  C   UNL     1     -24.810 -16.433 145.244  1.00  0.00     0.001 A 
ATOM      2  C   UNL     1     -25.951 -16.267 145.827  1.00  0.00     0.009 A 
ATOM      3  C   UNL     1     -26.446 -15.160 145.982  1.00  0.00    -0.014 A 
ATOM      4  C   UNL     1     -25.374 -14.107 145.649  1.00  0.00    -0.033 A 
ATOM      5  C   UNL     1     -23.894 -15.595 144.877  1.00  0.00     0.004 A 
ATOM      6  C   UNL     1     -24.235 -14.221 145.183  1.00  0.00    -0.047 A 
ATOM      7  C   UNL     1     -27.700 -14.744 146.574  1.00  0.00    -0.015 C 
ATOM      8  C   UNL     1     -28.476 -15.685 146.980  1.00  0.00     0.009 C 
ATOM      9  C   UNL     1     -28.185 -13.363 146.554  1.00  0.00    -0.040 C 
ATOM     10  C   UNL     1     -27.209 -12.359 146.335  1.00  0.00    -0.018 C 
ATOM     11  C   UNL     1     -25.807 -12.633 146.110  1.00  0.00     0.064 C 
ATOM     12  C   UNL     1     -23.236 -13.079 144.841  1.00  0.00     0.044 C 
ATOM     13  C   UNL     1     -29.571 -15.346 147.881  1.00  0.00    -0.003 C 
ATOM     14  C   UNL     1     -29.882 -13.983 147.925  1.00  0.00    -0.022 C 
ATOM     15  C   UNL     1     -29.129 -12.971 147.452  1.00  0.00     0.063 C 
ENDROOT
TORSDOF 0
ENDMDL
MODEL 9
REMARK VINA RESULT:      -8.2      5.610      7.011
REMARK SMILES Cc1cccc2c1CC=C1CC=CC=C12
REMARK SMILES IDX 4 1 5 2 6 3 7 4 3 5 2 6 15 7 14 8 10 9 9 10 8 11 1 12 13 13
REMARK SMILES IDX 12 14 11 15
REMARK H PARENT
REMARK Flexibility Score: inf
ROOT
ATOM      1  C   UNL     1     -27.638 -10.302 139.462  1.00  0.00     0.001 A 
ATOM      2  C   UNL     1     -27.524 -10.967 140.564  1.00  0.00     0.009 A 
ATOM      3  C   UNL     1     -28.155 -10.673 141.568  1.00  0.00    -0.014 A 
ATOM      4  C   UNL     1     -28.800  -9.294 141.341  1.00  0.00    -0.033 A 
ATOM      5  C   UNL     1     -28.218  -9.178 139.184  1.00  0.00     0.004 A 
ATOM      6  C   UNL     1     -28.853  -8.574 140.337  1.00  0.00    -0.047 A 
ATOM      7  C   UNL     1     -28.203 -11.279 142.883  1.00  0.00    -0.015 C 
ATOM      8  C   UNL     1     -27.503 -12.344 143.042  1.00  0.00     0.009 C 
ATOM      9  C   UNL     1     -29.129 -10.855 143.934  1.00  0.00    -0.040 C 
ATOM     10  C   UNL     1     -29.677  -9.554 143.802  1.00  0.00    -0.018 C 
ATOM     11  C   UNL     1     -29.392  -8.669 142.694  1.00  0.00     0.064 C 
ATOM     12  C   UNL     1     -29.572  -7.202 140.198  1.00  0.00     0.044 C 
ATOM     13  C   UNL     1     -27.231 -12.803 144.400  1.00  0.00    -0.003 C 
ATOM     14  C   UNL     1     -28.058 -12.240 145.376  1.00  0.00    -0.022 C 
ATOM     15  C   UNL     1     -28.858 -11.165 145.231  1.00  0.00     0.063 C 
ENDROOT
TORSDOF 0
ENDMDL
MODEL 10
REMARK VINA RESULT:      -8.1      2.324      3.415
REMARK SMILES Cc1cccc2c1CC=C1CC=CC=C12
REMARK SMILES IDX 4 1 5 2 6 3 7 4 3 5 2 6 15 7 14 8 10 9 9 10 8 11 1 12 13 13
REMARK SMILES IDX 12 14 11 15
REMARK H PARENT
REMARK Flexibility Score: inf
ROOT
ATOM      1  C   UNL     1     -29.141 -17.063 148.801  1.00  0.00     0.001 A 
ATOM      2  C   UNL     1     -28.559 -16.461 147.816  1.00  0.00     0.009 A 
ATOM      3  C   UNL     1     -28.641 -15.252 147.656  1.00  0.00    -0.014 A 
ATOM      4  C   UNL     1     -29.733 -14.717 148.600  1.00  0.00    -0.033 A 
ATOM      5  C   UNL     1     -30.013 -16.661 149.670  1.00  0.00     0.004 A 
ATOM      6  C   UNL     1     -30.388 -15.273 149.489  1.00  0.00    -0.047 A 
ATOM      7  C   UNL     1     -28.065 -14.375 146.657  1.00  0.00    -0.015 C 
ATOM      8  C   UNL     1     -27.287 -14.930 145.798  1.00  0.00     0.009 C 
ATOM      9  C   UNL     1     -28.174 -12.916 146.702  1.00  0.00    -0.040 C 
ATOM     10  C   UNL     1     -29.224 -12.390 147.495  1.00  0.00    -0.018 C 
ATOM     11  C   UNL     1     -30.143 -13.205 148.258  1.00  0.00     0.064 C 
ATOM     12  C   UNL     1     -31.449 -14.627 150.424  1.00  0.00     0.044 C 
ATOM     13  C   UNL     1     -26.954 -14.195 144.582  1.00  0.00    -0.003 C 
ATOM     14  C   UNL     1     -27.226 -12.825 144.643  1.00  0.00    -0.022 C 
ATOM     15  C   UNL     1     -27.981 -12.194 145.565  1.00  0.00     0.063 C 
ENDROOT
TORSDOF 0
ENDMDL
