MODEL 1
REMARK VINA RESULT:     -11.4      0.000      0.000
REMARK SMILES NC1=NC2C3=C4N(C=CC3=N1)C=C1CC3=C(N=CC5=NC=C[C@H]53)N=C1N4c1nccn12
REMARK SMILES IDX 12 1 13 2 14 3 25 4 15 5 7 6 8 7 6 8 16 9 26 10 5 11 4 12
REMARK SMILES IDX 27 13 10 14 31 15 30 16 9 17 23 18 17 19 22 20 18 21 24 22
REMARK SMILES IDX 11 23 28 24 2 25 1 26 3 27 21 28 29 29 20 30 19 31
REMARK H PARENT 1 32 1 33
REMARK Flexibility Score: inf
ROOT
ATOM      1  C   UNL     1     -30.301 -12.639 148.086  1.00  0.00     0.100 C 
ATOM      2  C   UNL     1     -29.532 -13.592 148.062  1.00  0.00     0.016 C 
ATOM      3  C   UNL     1     -28.418 -13.717 147.234  1.00  0.00     0.077 C 
ATOM      4  C   UNL     1     -29.676 -14.835 148.892  1.00  0.00     0.148 C 
ATOM      5  C   UNL     1     -27.938 -14.850 146.621  1.00  0.00    -0.008 C 
ATOM      6  N   UNL     1     -31.457 -12.640 149.005  1.00  0.00    -0.309 N 
ATOM      7  C   UNL     1     -32.248 -11.645 149.259  1.00  0.00     0.095 C 
ATOM      8  C   UNL     1     -31.545 -13.828 149.647  1.00  0.00     0.135 C 
ATOM      9  C   UNL     1     -28.486 -16.055 147.244  1.00  0.00     0.154 C 
ATOM     10  N   UNL     1     -30.711 -14.891 149.729  1.00  0.00    -0.248 N 
ATOM     11  C   UNL     1     -32.534 -14.030 150.659  1.00  0.00     0.065 C 
ATOM     12  C   UNL     1     -32.579 -15.127 151.467  1.00  0.00     0.248 C 
ATOM     13  C   UNL     1     -30.826 -16.016 150.489  1.00  0.00     0.219 A 
ATOM     14  C   UNL     1     -33.682 -12.958 150.940  1.00  0.00     0.079 C 
ATOM     15  N   UNL     1     -31.712 -15.997 151.403  1.00  0.00    -0.289 N 
ATOM     16  C   UNL     1     -31.602 -17.100 152.399  1.00  0.00     0.112 A 
ATOM     17  C   UNL     1     -33.335 -11.818 150.128  1.00  0.00     0.047 C 
ATOM     18  C   UNL     1     -26.679 -15.014 145.937  1.00  0.00     0.094 C 
ATOM     19  N   UNL     1     -28.022 -17.330 146.785  1.00  0.00    -0.235 NA
ATOM     20  C   UNL     1     -25.968 -13.869 145.521  1.00  0.00     0.007 C 
ATOM     21  C   UNL     1     -27.081 -17.357 145.848  1.00  0.00     0.138 C 
ATOM     22  N   UNL     1     -29.165 -16.091 148.397  1.00  0.00    -0.211 NA
ATOM     23  N   UNL     1     -34.695 -13.213 151.644  1.00  0.00    -0.214 NA
ATOM     24  N   UNL     1     -29.809 -16.829 150.980  1.00  0.00    -0.221 NA
ATOM     25  C   UNL     1     -34.703 -14.407 152.409  1.00  0.00     0.218 C 
ATOM     26  N   UNL     1     -35.728 -14.686 153.137  1.00  0.00    -0.368 N 
ATOM     27  N   UNL     1     -33.708 -15.048 152.243  1.00  0.00    -0.221 NA
ATOM     28  C   UNL     1     -24.722 -14.147 144.977  1.00  0.00     0.108 C 
ATOM     29  C   UNL     1     -30.329 -17.627 151.941  1.00  0.00     0.133 A 
ATOM     30  N   UNL     1     -24.593 -15.539 144.817  1.00  0.00    -0.259 NA
ATOM     31  C   UNL     1     -26.145 -16.190 145.534  1.00  0.00     0.070 C 
ATOM     32  H   UNL     1     -52.780-125.217 242.896  1.00  0.00     0.159 HD
ATOM     33  H   UNL     1     -52.780-125.217 242.896  1.00  0.00     0.159 HD
ENDROOT
TORSDOF 0
ENDMDL
MODEL 2
REMARK VINA RESULT:     -11.1      5.748      8.561
REMARK SMILES NC1=NC2C3=C4N(C=CC3=N1)C=C1CC3=C(N=CC5=NC=C[C@H]53)N=C1N4c1nccn12
REMARK SMILES IDX 12 1 13 2 14 3 25 4 15 5 7 6 8 7 6 8 16 9 26 10 5 11 4 12
REMARK SMILES IDX 27 13 10 14 31 15 30 16 9 17 23 18 17 19 22 20 18 21 24 22
REMARK SMILES IDX 11 23 28 24 2 25 1 26 3 27 21 28 29 29 20 30 19 31
REMARK H PARENT 1 32 1 33
REMARK Flexibility Score: inf
ROOT
ATOM      1  C   UNL     1     -28.441 -12.143 145.876  1.00  0.00     0.100 C 
ATOM      2  C   UNL     1     -27.731 -13.002 145.367  1.00  0.00     0.016 C 
ATOM      3  C   UNL     1     -27.154 -14.082 146.033  1.00  0.00     0.077 C 
ATOM      4  C   UNL     1     -27.308 -13.025 143.926  1.00  0.00     0.148 C 
ATOM      5  C   UNL     1     -25.916 -14.642 145.831  1.00  0.00    -0.008 C 
ATOM      6  N   UNL     1     -28.977 -11.040 145.054  1.00  0.00    -0.309 N 
ATOM      7  C   UNL     1     -29.866 -10.166 145.412  1.00  0.00     0.095 C 
ATOM      8  C   UNL     1     -28.478 -11.104 143.798  1.00  0.00     0.135 C 
ATOM      9  C   UNL     1     -25.369 -14.249 144.531  1.00  0.00     0.154 C 
ATOM     10  N   UNL     1     -27.755 -12.044 143.144  1.00  0.00    -0.248 N 
ATOM     11  C   UNL     1     -28.929 -10.192 142.794  1.00  0.00     0.065 C 
ATOM     12  C   UNL     1     -28.607 -10.297 141.474  1.00  0.00     0.248 C 
ATOM     13  C   UNL     1     -27.379 -12.081 141.836  1.00  0.00     0.219 A 
ATOM     14  C   UNL     1     -29.877  -8.956 143.144  1.00  0.00     0.079 C 
ATOM     15  N   UNL     1     -27.940 -11.243 141.059  1.00  0.00    -0.289 N 
ATOM     16  C   UNL     1     -27.742 -11.513 139.606  1.00  0.00     0.112 A 
ATOM     17  C   UNL     1     -30.242  -9.146 144.526  1.00  0.00     0.047 C 
ATOM     18  C   UNL     1     -25.408 -15.875 146.378  1.00  0.00     0.094 C 
ATOM     19  N   UNL     1     -24.121 -14.816 144.118  1.00  0.00    -0.235 NA
ATOM     20  C   UNL     1     -26.049 -16.447 147.498  1.00  0.00     0.007 C 
ATOM     21  C   UNL     1     -23.541 -15.708 144.914  1.00  0.00     0.138 C 
ATOM     22  N   UNL     1     -26.053 -13.636 143.557  1.00  0.00    -0.211 NA
ATOM     23  N   UNL     1     -30.088  -8.011 142.340  1.00  0.00    -0.214 NA
ATOM     24  N   UNL     1     -27.119 -13.197 141.047  1.00  0.00    -0.221 NA
ATOM     25  C   UNL     1     -29.666  -8.161 140.995  1.00  0.00     0.218 C 
ATOM     26  N   UNL     1     -29.874  -7.206 140.155  1.00  0.00    -0.368 N 
ATOM     27  N   UNL     1     -29.114  -9.206 140.815  1.00  0.00    -0.221 NA
ATOM     28  C   UNL     1     -25.543 -17.686 147.864  1.00  0.00     0.108 C 
ATOM     29  C   UNL     1     -27.102 -12.809 139.751  1.00  0.00     0.133 A 
ATOM     30  N   UNL     1     -24.382 -17.946 147.114  1.00  0.00    -0.259 NA
ATOM     31  C   UNL     1     -24.274 -16.505 145.992  1.00  0.00     0.070 C 
ATOM     32  H   UNL     1      -2.258  -5.827  -0.557  1.00  0.00     0.159 HD
ATOM     33  H   UNL     1      -2.258  -5.827  -0.557  1.00  0.00     0.159 HD
ENDROOT
TORSDOF 0
ENDMDL
MODEL 3
REMARK VINA RESULT:     -11.0      3.758      7.213
REMARK SMILES NC1=NC2C3=C4N(C=CC3=N1)C=C1CC3=C(N=CC5=NC=C[C@H]53)N=C1N4c1nccn12
REMARK SMILES IDX 12 1 13 2 14 3 25 4 15 5 7 6 8 7 6 8 16 9 26 10 5 11 4 12
REMARK SMILES IDX 27 13 10 14 31 15 30 16 9 17 23 18 17 19 22 20 18 21 24 22
REMARK SMILES IDX 11 23 28 24 2 25 1 26 3 27 21 28 29 29 20 30 19 31
REMARK H PARENT 1 32 1 33
REMARK Flexibility Score: inf
ROOT
ATOM      1  C   UNL     1     -25.500 -14.194 144.184  1.00  0.00     0.100 C 
ATOM      2  C   UNL     1     -26.556 -13.573 144.166  1.00  0.00     0.016 C 
ATOM      3  C   UNL     1     -26.949 -12.663 143.186  1.00  0.00     0.077 C 
ATOM      4  C   UNL     1     -27.613 -13.643 145.230  1.00  0.00     0.148 C 
ATOM      5  C   UNL     1     -27.649 -11.492 143.346  1.00  0.00    -0.008 C 
ATOM      6  N   UNL     1     -25.202 -15.120 145.295  1.00  0.00    -0.309 N 
ATOM      7  C   UNL     1     -24.216 -15.959 145.363  1.00  0.00     0.095 C 
ATOM      8  C   UNL     1     -26.172 -15.053 146.236  1.00  0.00     0.135 C 
ATOM      9  C   UNL     1     -28.327 -11.460 144.643  1.00  0.00     0.154 C 
ATOM     10  N   UNL     1     -27.387 -14.456 146.261  1.00  0.00    -0.248 N 
ATOM     11  C   UNL     1     -26.146 -15.931 147.363  1.00  0.00     0.065 C 
ATOM     12  C   UNL     1     -27.167 -16.045 148.260  1.00  0.00     0.248 C 
ATOM     13  C   UNL     1     -28.357 -14.524 147.214  1.00  0.00     0.219 A 
ATOM     14  C   UNL     1     -24.898 -16.880 147.663  1.00  0.00     0.079 C 
ATOM     15  N   UNL     1     -28.216 -15.421 148.107  1.00  0.00    -0.289 N 
ATOM     16  C   UNL     1     -29.429 -15.670 148.936  1.00  0.00     0.112 A 
ATOM     17  C   UNL     1     -24.042 -16.744 146.512  1.00  0.00     0.047 C 
ATOM     18  C   UNL     1     -28.225 -10.663 142.317  1.00  0.00     0.094 C 
ATOM     19  N   UNL     1     -29.177 -10.346 144.939  1.00  0.00    -0.235 NA
ATOM     20  C   UNL     1     -27.786 -10.816 140.984  1.00  0.00     0.007 C 
ATOM     21  C   UNL     1     -29.347  -9.417 144.004  1.00  0.00     0.138 C 
ATOM     22  N   UNL     1     -28.465 -12.503 145.470  1.00  0.00    -0.211 NA
ATOM     23  N   UNL     1     -24.743 -17.473 148.763  1.00  0.00    -0.214 NA
ATOM     24  N   UNL     1     -29.732 -14.378 147.054  1.00  0.00    -0.221 NA
ATOM     25  C   UNL     1     -25.825 -17.495 149.678  1.00  0.00     0.218 C 
ATOM     26  N   UNL     1     -25.688 -18.099 150.807  1.00  0.00    -0.368 N 
ATOM     27  N   UNL     1     -26.769 -16.888 149.265  1.00  0.00    -0.221 NA
ATOM     28  C   UNL     1     -28.490 -10.048 140.068  1.00  0.00     0.108 C 
ATOM     29  C   UNL     1     -30.342 -14.840 148.170  1.00  0.00     0.133 A 
ATOM     30  N   UNL     1     -29.339  -9.169 140.764  1.00  0.00    -0.259 NA
ATOM     31  C   UNL     1     -29.086  -9.639 142.515  1.00  0.00     0.070 C 
ATOM     32  H   UNL     1    -124.561 -38.258 252.701  1.00  0.00     0.159 HD
ATOM     33  H   UNL     1    -124.561 -38.258 252.701  1.00  0.00     0.159 HD
ENDROOT
TORSDOF 0
ENDMDL
MODEL 4
REMARK VINA RESULT:     -10.9      4.575      7.280
REMARK SMILES NC1=NC2C3=C4N(C=CC3=N1)C=C1CC3=C(N=CC5=NC=C[C@H]53)N=C1N4c1nccn12
REMARK SMILES IDX 12 1 13 2 14 3 25 4 15 5 7 6 8 7 6 8 16 9 26 10 5 11 4 12
REMARK SMILES IDX 27 13 10 14 31 15 30 16 9 17 23 18 17 19 22 20 18 21 24 22
REMARK SMILES IDX 11 23 28 24 2 25 1 26 3 27 21 28 29 29 20 30 19 31
REMARK H PARENT 1 32 1 33
REMARK Flexibility Score: inf
ROOT
ATOM      1  C   UNL     1     -29.604 -11.063 144.867  1.00  0.00     0.100 C 
ATOM      2  C   UNL     1     -28.828 -11.146 143.923  1.00  0.00     0.016 C 
ATOM      3  C   UNL     1     -28.802 -10.303 142.813  1.00  0.00     0.077 C 
ATOM      4  C   UNL     1     -27.781 -12.210 143.762  1.00  0.00     0.148 C 
ATOM      5  C   UNL     1     -28.545 -10.630 141.504  1.00  0.00    -0.008 C 
ATOM      6  N   UNL     1     -29.533 -12.035 145.976  1.00  0.00    -0.309 N 
ATOM      7  C   UNL     1     -30.167 -11.973 147.105  1.00  0.00     0.095 C 
ATOM      8  C   UNL     1     -28.619 -12.995 145.701  1.00  0.00     0.135 C 
ATOM      9  C   UNL     1     -27.882 -11.931 141.409  1.00  0.00     0.154 C 
ATOM     10  N   UNL     1     -27.684 -13.120 144.730  1.00  0.00    -0.248 N 
ATOM     11  C   UNL     1     -28.307 -13.994 146.674  1.00  0.00     0.065 C 
ATOM     12  C   UNL     1     -27.284 -14.886 146.544  1.00  0.00     0.248 C 
ATOM     13  C   UNL     1     -26.722 -14.073 144.583  1.00  0.00     0.219 A 
ATOM     14  C   UNL     1     -29.142 -14.143 148.026  1.00  0.00     0.079 C 
ATOM     15  N   UNL     1     -26.519 -14.836 145.582  1.00  0.00    -0.289 N 
ATOM     16  C   UNL     1     -25.271 -15.646 145.502  1.00  0.00     0.112 A 
ATOM     17  C   UNL     1     -30.026 -13.004 148.045  1.00  0.00     0.047 C 
ATOM     18  C   UNL     1     -28.320  -9.730 140.400  1.00  0.00     0.094 C 
ATOM     19  N   UNL     1     -27.460 -12.388 140.120  1.00  0.00    -0.235 NA
ATOM     20  C   UNL     1     -28.718  -8.382 140.520  1.00  0.00     0.007 C 
ATOM     21  C   UNL     1     -27.648 -11.588 139.076  1.00  0.00     0.138 C 
ATOM     22  N   UNL     1     -27.368 -12.615 142.439  1.00  0.00    -0.211 NA
ATOM     23  N   UNL     1     -29.051 -15.151 148.775  1.00  0.00    -0.214 NA
ATOM     24  N   UNL     1     -25.487 -13.959 143.952  1.00  0.00    -0.221 NA
ATOM     25  C   UNL     1     -28.001 -16.074 148.541  1.00  0.00     0.218 C 
ATOM     26  N   UNL     1     -27.888 -17.111 149.297  1.00  0.00    -0.368 N 
ATOM     27  N   UNL     1     -27.337 -15.763 147.597  1.00  0.00    -0.221 NA
ATOM     28  C   UNL     1     -28.349  -7.589 139.442  1.00  0.00     0.108 C 
ATOM     29  C   UNL     1     -24.723 -15.014 144.315  1.00  0.00     0.133 A 
ATOM     30  N   UNL     1     -27.835  -8.411 138.424  1.00  0.00    -0.259 NA
ATOM     31  C   UNL     1     -27.859 -10.078 139.176  1.00  0.00     0.070 C 
ATOM     32  H   UNL     1      74.795-117.192 147.194  1.00  0.00     0.159 HD
ATOM     33  H   UNL     1      74.795-117.192 147.194  1.00  0.00     0.159 HD
ENDROOT
TORSDOF 0
ENDMDL
MODEL 5
REMARK VINA RESULT:     -10.8      4.113      7.885
REMARK SMILES NC1=NC2C3=C4N(C=CC3=N1)C=C1CC3=C(N=CC5=NC=C[C@H]53)N=C1N4c1nccn12
REMARK SMILES IDX 12 1 13 2 14 3 25 4 15 5 7 6 8 7 6 8 16 9 26 10 5 11 4 12
REMARK SMILES IDX 27 13 10 14 31 15 30 16 9 17 23 18 17 19 22 20 18 21 24 22
REMARK SMILES IDX 11 23 28 24 2 25 1 26 3 27 21 28 29 29 20 30 19 31
REMARK H PARENT 1 32 1 33
REMARK Flexibility Score: inf
ROOT
ATOM      1  C   UNL     1     -29.726 -12.688 146.414  1.00  0.00     0.100 C 
ATOM      2  C   UNL     1     -29.142 -11.974 145.608  1.00  0.00     0.016 C 
ATOM      3  C   UNL     1     -29.695 -10.890 144.930  1.00  0.00     0.077 C 
ATOM      4  C   UNL     1     -27.721 -12.166 145.161  1.00  0.00     0.148 C 
ATOM      5  C   UNL     1     -29.465 -10.490 143.636  1.00  0.00    -0.008 C 
ATOM      6  N   UNL     1     -29.023 -13.819 147.052  1.00  0.00    -0.309 N 
ATOM      7  C   UNL     1     -29.453 -14.546 148.035  1.00  0.00     0.095 C 
ATOM      8  C   UNL     1     -27.783 -13.957 146.528  1.00  0.00     0.135 C 
ATOM      9  C   UNL     1     -28.236 -11.088 143.113  1.00  0.00     0.154 C 
ATOM     10  N   UNL     1     -27.046 -13.181 145.698  1.00  0.00    -0.248 N 
ATOM     11  C   UNL     1     -26.879 -14.929 147.057  1.00  0.00     0.065 C 
ATOM     12  C   UNL     1     -25.565 -15.015 146.704  1.00  0.00     0.248 C 
ATOM     13  C   UNL     1     -25.753 -13.339 145.298  1.00  0.00     0.219 A 
ATOM     14  C   UNL     1     -27.342 -16.008 148.138  1.00  0.00     0.079 C 
ATOM     15  N   UNL     1     -25.063 -14.200 145.933  1.00  0.00    -0.289 N 
ATOM     16  C   UNL     1     -23.595 -14.125 145.683  1.00  0.00     0.112 A 
ATOM     17  C   UNL     1     -28.681 -15.619 148.503  1.00  0.00     0.047 C 
ATOM     18  C   UNL     1     -29.880  -9.260 143.007  1.00  0.00     0.094 C 
ATOM     19  N   UNL     1     -27.797 -10.708 141.804  1.00  0.00    -0.235 NA
ATOM     20  C   UNL     1     -30.907  -8.496 143.602  1.00  0.00     0.007 C 
ATOM     21  C   UNL     1     -28.501  -9.794 141.145  1.00  0.00     0.138 C 
ATOM     22  N   UNL     1     -27.321 -11.738 143.842  1.00  0.00    -0.211 NA
ATOM     23  N   UNL     1     -26.647 -17.015 148.436  1.00  0.00    -0.214 NA
ATOM     24  N   UNL     1     -24.848 -12.357 144.907  1.00  0.00    -0.221 NA
ATOM     25  C   UNL     1     -25.306 -17.070 147.978  1.00  0.00     0.218 C 
ATOM     26  N   UNL     1     -24.577 -18.090 148.273  1.00  0.00    -0.368 N 
ATOM     27  N   UNL     1     -25.023 -16.117 147.314  1.00  0.00    -0.221 NA
ATOM     28  C   UNL     1     -31.142  -7.282 142.972  1.00  0.00     0.108 C 
ATOM     29  C   UNL     1     -23.607 -12.896 144.910  1.00  0.00     0.133 A 
ATOM     30  N   UNL     1     -30.401  -7.235 141.778  1.00  0.00    -0.259 NA
ATOM     31  C   UNL     1     -29.457  -8.803 141.806  1.00  0.00     0.070 C 
ATOM     32  H   UNL     1     114.163 -38.999 118.634  1.00  0.00     0.159 HD
ATOM     33  H   UNL     1     114.163 -38.999 118.634  1.00  0.00     0.159 HD
ENDROOT
TORSDOF 0
ENDMDL
MODEL 6
REMARK VINA RESULT:     -10.6      5.703      9.495
REMARK SMILES NC1=NC2C3=C4N(C=CC3=N1)C=C1CC3=C(N=CC5=NC=C[C@H]53)N=C1N4c1nccn12
REMARK SMILES IDX 12 1 13 2 14 3 25 4 15 5 7 6 8 7 6 8 16 9 26 10 5 11 4 12
REMARK SMILES IDX 27 13 10 14 31 15 30 16 9 17 23 18 17 19 22 20 18 21 24 22
REMARK SMILES IDX 11 23 28 24 2 25 1 26 3 27 21 28 29 29 20 30 19 31
REMARK H PARENT 1 32 1 33
REMARK Flexibility Score: inf
ROOT
ATOM      1  C   UNL     1     -29.795 -10.502 144.809  1.00  0.00     0.100 C 
ATOM      2  C   UNL     1     -29.203 -11.574 144.787  1.00  0.00     0.016 C 
ATOM      3  C   UNL     1     -29.154 -12.500 145.827  1.00  0.00     0.077 C 
ATOM      4  C   UNL     1     -28.372 -12.073 143.639  1.00  0.00     0.148 C 
ATOM      5  C   UNL     1     -28.098 -13.289 146.213  1.00  0.00    -0.008 C 
ATOM      6  N   UNL     1     -29.753  -9.605 143.638  1.00  0.00    -0.309 N 
ATOM      7  C   UNL     1     -30.458  -8.532 143.455  1.00  0.00     0.095 C 
ATOM      8  C   UNL     1     -28.920 -10.102 142.694  1.00  0.00     0.135 C 
ATOM      9  C   UNL     1     -27.093 -13.376 145.152  1.00  0.00     0.154 C 
ATOM     10  N   UNL     1     -28.292 -11.294 142.562  1.00  0.00    -0.248 N 
ATOM     11  C   UNL     1     -28.791  -9.451 141.429  1.00  0.00     0.065 C 
ATOM     12  C   UNL     1     -28.112  -9.977 140.371  1.00  0.00     0.248 C 
ATOM     13  C   UNL     1     -27.548 -11.761 141.520  1.00  0.00     0.219 A 
ATOM     14  C   UNL     1     -29.458  -8.029 141.142  1.00  0.00     0.079 C 
ATOM     15  N   UNL     1     -27.609 -11.098 140.435  1.00  0.00    -0.289 N 
ATOM     16  C   UNL     1     -27.043 -11.797 139.247  1.00  0.00     0.112 A 
ATOM     17  C   UNL     1     -30.270  -7.758 142.302  1.00  0.00     0.047 C 
ATOM     18  C   UNL     1     -28.113 -14.383 147.152  1.00  0.00     0.094 C 
ATOM     19  N   UNL     1     -25.963 -14.233 145.352  1.00  0.00    -0.235 NA
ATOM     20  C   UNL     1     -29.193 -14.501 148.053  1.00  0.00     0.007 C 
ATOM     21  C   UNL     1     -25.904 -14.945 146.473  1.00  0.00     0.138 C 
ATOM     22  N   UNL     1     -27.261 -12.960 143.891  1.00  0.00    -0.211 NA
ATOM     23  N   UNL     1     -29.162  -7.329 140.138  1.00  0.00    -0.214 NA
ATOM     24  N   UNL     1     -27.345 -13.082 141.132  1.00  0.00    -0.221 NA
ATOM     25  C   UNL     1     -28.394  -7.921 139.104  1.00  0.00     0.218 C 
ATOM     26  N   UNL     1     -28.083  -7.223 138.067  1.00  0.00    -0.368 N 
ATOM     27  N   UNL     1     -28.096  -9.050 139.361  1.00  0.00    -0.221 NA
ATOM     28  C   UNL     1     -29.156 -15.651 148.829  1.00  0.00     0.108 C 
ATOM     29  C   UNL     1     -26.829 -13.085 139.882  1.00  0.00     0.133 A 
ATOM     30  N   UNL     1     -27.924 -16.299 148.627  1.00  0.00    -0.259 NA
ATOM     31  C   UNL     1     -27.113 -15.273 147.348  1.00  0.00     0.070 C 
ATOM     32  H   UNL     1      41.386 -50.288  20.236  1.00  0.00     0.159 HD
ATOM     33  H   UNL     1      41.386 -50.288  20.236  1.00  0.00     0.159 HD
ENDROOT
TORSDOF 0
ENDMDL
MODEL 7
REMARK VINA RESULT:      -9.5      2.014      4.327
REMARK SMILES NC1=NC2C3=C4N(C=CC3=N1)C=C1CC3=C(N=CC5=NC=C[C@H]53)N=C1N4c1nccn12
REMARK SMILES IDX 12 1 13 2 14 3 25 4 15 5 7 6 8 7 6 8 16 9 26 10 5 11 4 12
REMARK SMILES IDX 27 13 10 14 31 15 30 16 9 17 23 18 17 19 22 20 18 21 24 22
REMARK SMILES IDX 11 23 28 24 2 25 1 26 3 27 21 28 29 29 20 30 19 31
REMARK H PARENT 1 32 1 33
REMARK Flexibility Score: inf
ROOT
ATOM      1  C   UNL     1     -29.118 -16.898 149.176  1.00  0.00     0.100 C 
ATOM      2  C   UNL     1     -28.365 -16.560 148.271  1.00  0.00     0.016 C 
ATOM      3  C   UNL     1     -27.354 -17.344 147.717  1.00  0.00     0.077 C 
ATOM      4  C   UNL     1     -28.358 -15.208 147.618  1.00  0.00     0.148 C 
ATOM      5  C   UNL     1     -26.113 -16.948 147.283  1.00  0.00    -0.008 C 
ATOM      6  N   UNL     1     -30.140 -15.960 149.682  1.00  0.00    -0.309 N 
ATOM      7  C   UNL     1     -31.103 -16.231 150.505  1.00  0.00     0.095 C 
ATOM      8  C   UNL     1     -30.001 -14.751 149.090  1.00  0.00     0.135 C 
ATOM      9  C   UNL     1     -26.068 -15.500 147.073  1.00  0.00     0.154 C 
ATOM     10  N   UNL     1     -29.253 -14.320 148.047  1.00  0.00    -0.248 N 
ATOM     11  C   UNL     1     -30.941 -13.706 149.353  1.00  0.00     0.065 C 
ATOM     12  C   UNL     1     -30.972 -12.525 148.672  1.00  0.00     0.248 C 
ATOM     13  C   UNL     1     -29.249 -13.101 147.439  1.00  0.00     0.219 A 
ATOM     14  C   UNL     1     -32.061 -13.846 150.481  1.00  0.00     0.079 C 
ATOM     15  N   UNL     1     -30.208 -12.317 147.732  1.00  0.00    -0.289 N 
ATOM     16  C   UNL     1     -30.344 -11.138 146.829  1.00  0.00     0.112 A 
ATOM     17  C   UNL     1     -31.971 -15.214 150.928  1.00  0.00     0.047 C 
ATOM     18  C   UNL     1     -25.155 -17.719 146.529  1.00  0.00     0.094 C 
ATOM     19  N   UNL     1     -24.872 -14.926 146.535  1.00  0.00    -0.235 NA
ATOM     20  C   UNL     1     -25.286 -19.124 146.486  1.00  0.00     0.007 C 
ATOM     21  C   UNL     1     -23.876 -15.741 146.206  1.00  0.00     0.138 C 
ATOM     22  N   UNL     1     -27.131 -14.687 147.063  1.00  0.00    -0.211 NA
ATOM     23  N   UNL     1     -32.734 -12.866 150.897  1.00  0.00    -0.214 NA
ATOM     24  N   UNL     1     -28.915 -12.798 146.123  1.00  0.00    -0.221 NA
ATOM     25  C   UNL     1     -32.668 -11.647 150.178  1.00  0.00     0.218 C 
ATOM     26  N   UNL     1     -33.350 -10.633 150.585  1.00  0.00    -0.368 N 
ATOM     27  N   UNL     1     -31.919 -11.718 149.249  1.00  0.00    -0.221 NA
ATOM     28  C   UNL     1     -24.379 -19.748 145.642  1.00  0.00     0.108 C 
ATOM     29  C   UNL     1     -29.358 -11.550 145.847  1.00  0.00     0.133 A 
ATOM     30  N   UNL     1     -23.439 -18.799 145.199  1.00  0.00    -0.259 NA
ATOM     31  C   UNL     1     -24.041 -17.236 145.935  1.00  0.00     0.070 C 
ATOM     32  H   UNL     1     -46.349 117.859  88.253  1.00  0.00     0.159 HD
ATOM     33  H   UNL     1     -46.349 117.859  88.253  1.00  0.00     0.159 HD
ENDROOT
TORSDOF 0
ENDMDL
MODEL 8
REMARK VINA RESULT:      -9.4      1.497      7.700
REMARK SMILES NC1=NC2C3=C4N(C=CC3=N1)C=C1CC3=C(N=CC5=NC=C[C@H]53)N=C1N4c1nccn12
REMARK SMILES IDX 12 1 13 2 14 3 25 4 15 5 7 6 8 7 6 8 16 9 26 10 5 11 4 12
REMARK SMILES IDX 27 13 10 14 31 15 30 16 9 17 23 18 17 19 22 20 18 21 24 22
REMARK SMILES IDX 11 23 28 24 2 25 1 26 3 27 21 28 29 29 20 30 19 31
REMARK H PARENT 1 32 1 33
REMARK Flexibility Score: inf
ROOT
ATOM      1  C   UNL     1     -30.035 -12.564 148.038  1.00  0.00     0.100 C 
ATOM      2  C   UNL     1     -30.296 -13.672 148.489  1.00  0.00     0.016 C 
ATOM      3  C   UNL     1     -31.359 -13.976 149.338  1.00  0.00     0.077 C 
ATOM      4  C   UNL     1     -29.484 -14.912 148.248  1.00  0.00     0.148 C 
ATOM      5  C   UNL     1     -31.382 -14.863 150.386  1.00  0.00    -0.008 C 
ATOM      6  N   UNL     1     -28.864 -12.377 147.158  1.00  0.00    -0.309 N 
ATOM      7  C   UNL     1     -28.565 -11.313 146.479  1.00  0.00     0.095 C 
ATOM      8  C   UNL     1     -28.156 -13.526 147.067  1.00  0.00     0.135 C 
ATOM      9  C   UNL     1     -30.263 -15.804 150.302  1.00  0.00     0.154 C 
ATOM     10  N   UNL     1     -28.409 -14.794 147.470  1.00  0.00    -0.248 N 
ATOM     11  C   UNL     1     -27.029 -13.613 146.192  1.00  0.00     0.065 C 
ATOM     12  C   UNL     1     -26.372 -14.775 145.914  1.00  0.00     0.248 C 
ATOM     13  C   UNL     1     -27.686 -15.926 147.245  1.00  0.00     0.219 A 
ATOM     14  C   UNL     1     -26.444 -12.331 145.443  1.00  0.00     0.079 C 
ATOM     15  N   UNL     1     -26.763 -15.848 146.371  1.00  0.00    -0.289 N 
ATOM     16  C   UNL     1     -26.210 -17.160 145.932  1.00  0.00     0.112 A 
ATOM     17  C   UNL     1     -27.387 -11.276 145.719  1.00  0.00     0.047 C 
ATOM     18  C   UNL     1     -32.531 -15.321 151.128  1.00  0.00     0.094 C 
ATOM     19  N   UNL     1     -30.184 -16.856 151.269  1.00  0.00    -0.235 NA
ATOM     20  C   UNL     1     -33.733 -14.585 151.056  1.00  0.00     0.007 C 
ATOM     21  C   UNL     1     -31.156 -16.958 152.170  1.00  0.00     0.138 C 
ATOM     22  N   UNL     1     -29.460 -15.958 149.242  1.00  0.00    -0.211 NA
ATOM     23  N   UNL     1     -25.323 -12.330 144.869  1.00  0.00    -0.214 NA
ATOM     24  N   UNL     1     -28.143 -17.239 147.179  1.00  0.00    -0.221 NA
ATOM     25  C   UNL     1     -24.663 -13.569 144.673  1.00  0.00     0.218 C 
ATOM     26  N   UNL     1     -23.517 -13.591 144.086  1.00  0.00    -0.368 N 
ATOM     27  N   UNL     1     -25.285 -14.482 145.132  1.00  0.00    -0.221 NA
ATOM     28  C   UNL     1     -34.797 -15.181 151.717  1.00  0.00     0.108 C 
ATOM     29  C   UNL     1     -27.175 -18.000 146.619  1.00  0.00     0.133 A 
ATOM     30  N   UNL     1     -34.322 -16.285 152.448  1.00  0.00    -0.259 NA
ATOM     31  C   UNL     1     -32.548 -16.350 152.006  1.00  0.00     0.070 C 
ATOM     32  H   UNL     1      55.066-127.999 108.030  1.00  0.00     0.159 HD
ATOM     33  H   UNL     1      55.066-127.999 108.030  1.00  0.00     0.159 HD
ENDROOT
TORSDOF 0
ENDMDL
MODEL 9
REMARK VINA RESULT:      -9.2      5.013      7.342
REMARK SMILES NC1=NC2C3=C4N(C=CC3=N1)C=C1CC3=C(N=CC5=NC=C[C@H]53)N=C1N4c1nccn12
REMARK SMILES IDX 12 1 13 2 14 3 25 4 15 5 7 6 8 7 6 8 16 9 26 10 5 11 4 12
REMARK SMILES IDX 27 13 10 14 31 15 30 16 9 17 23 18 17 19 22 20 18 21 24 22
REMARK SMILES IDX 11 23 28 24 2 25 1 26 3 27 21 28 29 29 20 30 19 31
REMARK H PARENT 1 32 1 33
REMARK Flexibility Score: inf
ROOT
ATOM      1  C   UNL     1     -30.257 -10.188 145.989  1.00  0.00     0.100 C 
ATOM      2  C   UNL     1     -29.565 -10.095 144.983  1.00  0.00     0.016 C 
ATOM      3  C   UNL     1     -29.608  -9.055 144.057  1.00  0.00     0.077 C 
ATOM      4  C   UNL     1     -28.564 -11.120 144.531  1.00  0.00     0.148 C 
ATOM      5  C   UNL     1     -29.469  -9.126 142.692  1.00  0.00    -0.008 C 
ATOM      6  N   UNL     1     -30.120 -11.356 146.881  1.00  0.00    -0.309 N 
ATOM      7  C   UNL     1     -30.657 -11.506 148.052  1.00  0.00     0.095 C 
ATOM      8  C   UNL     1     -29.259 -12.255 146.350  1.00  0.00     0.135 C 
ATOM      9  C   UNL     1     -28.852 -10.391 142.293  1.00  0.00     0.154 C 
ATOM     10  N   UNL     1     -28.412 -12.200 145.295  1.00  0.00    -0.248 N 
ATOM     11  C   UNL     1     -28.895 -13.427 147.082  1.00  0.00     0.065 C 
ATOM     12  C   UNL     1     -27.911 -14.287 146.696  1.00  0.00     0.248 C 
ATOM     13  C   UNL     1     -27.492 -13.118 144.886  1.00  0.00     0.219 A 
ATOM     14  C   UNL     1     -29.618 -13.824 148.448  1.00  0.00     0.079 C 
ATOM     15  N   UNL     1     -27.228 -14.061 145.699  1.00  0.00    -0.289 N 
ATOM     16  C   UNL     1     -26.013 -14.854 145.357  1.00  0.00     0.112 A 
ATOM     17  C   UNL     1     -30.466 -12.701 148.762  1.00  0.00     0.047 C 
ATOM     18  C   UNL     1     -29.312  -8.032 141.765  1.00  0.00     0.094 C 
ATOM     19  N   UNL     1     -28.551 -10.595 140.908  1.00  0.00    -0.235 NA
ATOM     20  C   UNL     1     -29.662  -6.728 142.175  1.00  0.00     0.007 C 
ATOM     21  C   UNL     1     -28.804  -9.606 140.057  1.00  0.00     0.138 C 
ATOM     22  N   UNL     1     -28.274 -11.267 143.124  1.00  0.00    -0.211 NA
ATOM     23  N   UNL     1     -29.493 -14.959 148.980  1.00  0.00    -0.214 NA
ATOM     24  N   UNL     1     -26.311 -12.897 144.183  1.00  0.00    -0.221 NA
ATOM     25  C   UNL     1     -28.492 -15.831 148.483  1.00  0.00     0.218 C 
ATOM     26  N   UNL     1     -28.345 -16.995 149.015  1.00  0.00    -0.368 N 
ATOM     27  N   UNL     1     -27.900 -15.350 147.562  1.00  0.00    -0.221 NA
ATOM     28  C   UNL     1     -29.363  -5.746 141.242  1.00  0.00     0.108 C 
ATOM     29  C   UNL     1     -25.549 -14.011 144.271  1.00  0.00     0.133 A 
ATOM     30  N   UNL     1     -28.957  -6.361 140.044  1.00  0.00    -0.259 NA
ATOM     31  C   UNL     1     -28.965  -8.142 140.463  1.00  0.00     0.070 C 
ATOM     32  H   UNL     1      71.035-115.896 118.901  1.00  0.00     0.159 HD
ATOM     33  H   UNL     1      71.035-115.896 118.901  1.00  0.00     0.159 HD
ENDROOT
TORSDOF 0
ENDMDL
MODEL 10
REMARK VINA RESULT:      -9.0      1.670      7.993
REMARK SMILES NC1=NC2C3=C4N(C=CC3=N1)C=C1CC3=C(N=CC5=NC=C[C@H]53)N=C1N4c1nccn12
REMARK SMILES IDX 12 1 13 2 14 3 25 4 15 5 7 6 8 7 6 8 16 9 26 10 5 11 4 12
REMARK SMILES IDX 27 13 10 14 31 15 30 16 9 17 23 18 17 19 22 20 18 21 24 22
REMARK SMILES IDX 11 23 28 24 2 25 1 26 3 27 21 28 29 29 20 30 19 31
REMARK H PARENT 1 32 1 33
REMARK Flexibility Score: inf
ROOT
ATOM      1  C   UNL     1     -28.949 -11.470 146.868  1.00  0.00     0.100 C 
ATOM      2  C   UNL     1     -29.638 -12.323 147.413  1.00  0.00     0.016 C 
ATOM      3  C   UNL     1     -30.835 -12.093 148.089  1.00  0.00     0.077 C 
ATOM      4  C   UNL     1     -29.294 -13.782 147.497  1.00  0.00     0.148 C 
ATOM      5  C   UNL     1     -31.299 -12.705 149.228  1.00  0.00    -0.008 C 
ATOM      6  N   UNL     1     -27.689 -11.849 146.197  1.00  0.00    -0.309 N 
ATOM      7  C   UNL     1     -26.952 -11.094 145.444  1.00  0.00     0.095 C 
ATOM      8  C   UNL     1     -27.428 -13.162 146.396  1.00  0.00     0.135 C 
ATOM      9  C   UNL     1     -30.584 -13.957 149.479  1.00  0.00     0.154 C 
ATOM     10  N   UNL     1     -28.160 -14.175 146.918  1.00  0.00    -0.248 N 
ATOM     11  C   UNL     1     -26.306 -13.779 145.761  1.00  0.00     0.065 C 
ATOM     12  C   UNL     1     -26.074 -15.123 145.770  1.00  0.00     0.248 C 
ATOM     13  C   UNL     1     -27.862 -15.502 146.986  1.00  0.00     0.219 A 
ATOM     14  C   UNL     1     -25.219 -12.929 144.960  1.00  0.00     0.079 C 
ATOM     15  N   UNL     1     -26.872 -15.899 146.292  1.00  0.00    -0.289 N 
ATOM     16  C   UNL     1     -26.769 -17.379 146.146  1.00  0.00     0.112 A 
ATOM     17  C   UNL     1     -25.754 -11.591 144.912  1.00  0.00     0.047 C 
ATOM     18  C   UNL     1     -32.617 -12.610 149.804  1.00  0.00     0.094 C 
ATOM     19  N   UNL     1     -31.001 -14.771 150.580  1.00  0.00    -0.235 NA
ATOM     20  C   UNL     1     -33.463 -11.549 149.415  1.00  0.00     0.007 C 
ATOM     21  C   UNL     1     -32.049 -14.373 151.295  1.00  0.00     0.138 C 
ATOM     22  N   UNL     1     -29.764 -14.567 148.614  1.00  0.00    -0.211 NA
ATOM     23  N   UNL     1     -24.108 -13.405 144.605  1.00  0.00    -0.214 NA
ATOM     24  N   UNL     1     -28.742 -16.580 147.021  1.00  0.00    -0.221 NA
ATOM     25  C   UNL     1     -23.911 -14.805 144.705  1.00  0.00     0.218 C 
ATOM     26  N   UNL     1     -22.783 -15.313 144.345  1.00  0.00    -0.368 N 
ATOM     27  N   UNL     1     -24.866 -15.358 145.165  1.00  0.00    -0.221 NA
ATOM     28  C   UNL     1     -34.742 -11.625 149.947  1.00  0.00     0.108 C 
ATOM     29  C   UNL     1     -28.045 -17.708 146.757  1.00  0.00     0.133 A 
ATOM     30  N   UNL     1     -34.781 -12.661 150.898  1.00  0.00    -0.259 NA
ATOM     31  C   UNL     1     -33.105 -13.387 150.798  1.00  0.00     0.070 C 
ATOM     32  H   UNL     1      14.059-153.812 139.311  1.00  0.00     0.159 HD
ATOM     33  H   UNL     1      14.059-153.812 139.311  1.00  0.00     0.159 HD
ENDROOT
TORSDOF 0
ENDMDL
