MODEL 1
REMARK VINA RESULT:      -3.1      0.000      0.000
REMARK SMILES C1=CC=NC=1
REMARK SMILES IDX 4 1 3 2 5 3 2 4 1 5
REMARK H PARENT
REMARK Flexibility Score: inf
ROOT
ATOM      1  N   UNL     1     -23.215 -13.782 144.204  1.00  0.00    -0.256 NA
ATOM      2  C   UNL     1     -23.914 -14.494 144.898  1.00  0.00     0.120 C 
ATOM      3  C   UNL     1     -22.898 -12.618 144.879  1.00  0.00     0.162 C 
ATOM      4  C   UNL     1     -24.492 -13.899 146.022  1.00  0.00     0.073 C 
ATOM      5  C   UNL     1     -23.807 -12.574 145.974  1.00  0.00    -0.099 C 
ENDROOT
TORSDOF 0
ENDMDL
MODEL 2
REMARK VINA RESULT:      -3.1     12.732     13.266
REMARK SMILES C1=CC=NC=1
REMARK SMILES IDX 4 1 3 2 5 3 2 4 1 5
REMARK H PARENT
REMARK Flexibility Score: inf
ROOT
ATOM      1  N   UNL     1     -29.606  -1.868 142.047  1.00  0.00    -0.256 NA
ATOM      2  C   UNL     1     -30.330  -1.176 142.736  1.00  0.00     0.120 C 
ATOM      3  C   UNL     1     -28.946  -2.798 142.829  1.00  0.00     0.162 C 
ATOM      4  C   UNL     1     -30.118  -1.230 144.117  1.00  0.00     0.073 C 
ATOM      5  C   UNL     1     -29.119  -2.338 144.165  1.00  0.00    -0.099 C 
ENDROOT
TORSDOF 0
ENDMDL
MODEL 3
REMARK VINA RESULT:      -3.1      0.889      1.717
REMARK SMILES C1=CC=NC=1
REMARK SMILES IDX 4 1 3 2 5 3 2 4 1 5
REMARK H PARENT
REMARK Flexibility Score: inf
ROOT
ATOM      1  N   UNL     1     -23.993 -14.463 145.128  1.00  0.00    -0.256 NA
ATOM      2  C   UNL     1     -23.405 -13.559 144.569  1.00  0.00     0.120 C 
ATOM      3  C   UNL     1     -24.645 -13.988 146.252  1.00  0.00     0.162 C 
ATOM      4  C   UNL     1     -23.238 -12.377 145.296  1.00  0.00     0.073 C 
ATOM      5  C   UNL     1     -24.074 -12.706 146.488  1.00  0.00    -0.099 C 
ENDROOT
TORSDOF 0
ENDMDL
MODEL 4
REMARK VINA RESULT:      -3.1      6.830      7.004
REMARK SMILES C1=CC=NC=1
REMARK SMILES IDX 4 1 3 2 5 3 2 4 1 5
REMARK H PARENT
REMARK Flexibility Score: inf
ROOT
ATOM      1  N   UNL     1     -26.757 -10.674 139.621  1.00  0.00    -0.256 NA
ATOM      2  C   UNL     1     -27.640 -10.260 140.347  1.00  0.00     0.120 C 
ATOM      3  C   UNL     1     -27.007 -11.986 139.262  1.00  0.00     0.162 C 
ATOM      4  C   UNL     1     -28.491 -11.218 140.905  1.00  0.00     0.073 C 
ATOM      5  C   UNL     1     -28.011 -12.425 140.171  1.00  0.00    -0.099 C 
ENDROOT
TORSDOF 0
ENDMDL
MODEL 5
REMARK VINA RESULT:      -2.9      8.750      9.007
REMARK SMILES C1=CC=NC=1
REMARK SMILES IDX 4 1 3 2 5 3 2 4 1 5
REMARK H PARENT
REMARK Flexibility Score: inf
ROOT
ATOM      1  N   UNL     1     -31.258  -9.506 142.530  1.00  0.00    -0.256 NA
ATOM      2  C   UNL     1     -31.292  -8.344 142.176  1.00  0.00     0.120 C 
ATOM      3  C   UNL     1     -30.021 -10.056 142.249  1.00  0.00     0.162 C 
ATOM      4  C   UNL     1     -30.273  -7.921 141.317  1.00  0.00     0.073 C 
ATOM      5  C   UNL     1     -29.414  -9.141 141.343  1.00  0.00    -0.099 C 
ENDROOT
TORSDOF 0
ENDMDL
MODEL 6
REMARK VINA RESULT:      -2.9      4.813      5.567
REMARK SMILES C1=CC=NC=1
REMARK SMILES IDX 4 1 3 2 5 3 2 4 1 5
REMARK H PARENT
REMARK Flexibility Score: inf
ROOT
ATOM      1  N   UNL     1     -22.888 -19.154 146.653  1.00  0.00    -0.256 NA
ATOM      2  C   UNL     1     -22.988 -17.982 146.958  1.00  0.00     0.120 C 
ATOM      3  C   UNL     1     -24.055 -19.595 146.056  1.00  0.00     0.162 C 
ATOM      4  C   UNL     1     -24.277 -17.442 146.952  1.00  0.00     0.073 C 
ATOM      5  C   UNL     1     -25.019 -18.593 146.359  1.00  0.00    -0.099 C 
ENDROOT
TORSDOF 0
ENDMDL
MODEL 7
REMARK VINA RESULT:      -2.9      8.609      8.850
REMARK SMILES C1=CC=NC=1
REMARK SMILES IDX 4 1 3 2 5 3 2 4 1 5
REMARK H PARENT
REMARK Flexibility Score: inf
ROOT
ATOM      1  N   UNL     1     -29.006  -7.889 139.239  1.00  0.00    -0.256 NA
ATOM      2  C   UNL     1     -28.034  -8.493 138.831  1.00  0.00     0.120 C 
ATOM      3  C   UNL     1     -29.317  -8.294 140.525  1.00  0.00     0.162 C 
ATOM      4  C   UNL     1     -27.653  -9.627 139.553  1.00  0.00     0.073 C 
ATOM      5  C   UNL     1     -28.585  -9.500 140.712  1.00  0.00    -0.099 C 
ENDROOT
TORSDOF 0
ENDMDL
MODEL 8
REMARK VINA RESULT:      -2.9      2.775      3.443
REMARK SMILES C1=CC=NC=1
REMARK SMILES IDX 4 1 3 2 5 3 2 4 1 5
REMARK H PARENT
REMARK Flexibility Score: inf
ROOT
ATOM      1  N   UNL     1     -23.481 -17.372 145.604  1.00  0.00    -0.256 NA
ATOM      2  C   UNL     1     -23.862 -16.543 144.802  1.00  0.00     0.120 C 
ATOM      3  C   UNL     1     -24.053 -17.140 146.842  1.00  0.00     0.162 C 
ATOM      4  C   UNL     1     -24.490 -15.409 145.325  1.00  0.00     0.073 C 
ATOM      5  C   UNL     1     -24.579 -15.821 146.757  1.00  0.00    -0.099 C 
ENDROOT
TORSDOF 0
ENDMDL
MODEL 9
REMARK VINA RESULT:      -2.9      8.180      8.421
REMARK SMILES C1=CC=NC=1
REMARK SMILES IDX 4 1 3 2 5 3 2 4 1 5
REMARK H PARENT
REMARK Flexibility Score: inf
ROOT
ATOM      1  N   UNL     1     -28.278 -10.072 140.641  1.00  0.00    -0.256 NA
ATOM      2  C   UNL     1     -29.010  -9.125 140.851  1.00  0.00     0.120 C 
ATOM      3  C   UNL     1     -27.438  -9.800 139.576  1.00  0.00     0.162 C 
ATOM      4  C   UNL     1     -29.086  -8.157 139.846  1.00  0.00     0.073 C 
ATOM      5  C   UNL     1     -28.013  -8.663 138.941  1.00  0.00    -0.099 C 
ENDROOT
TORSDOF 0
ENDMDL
MODEL 10
REMARK VINA RESULT:      -2.8      8.860      9.031
REMARK SMILES C1=CC=NC=1
REMARK SMILES IDX 4 1 3 2 5 3 2 4 1 5
REMARK H PARENT
REMARK Flexibility Score: inf
ROOT
ATOM      1  N   UNL     1     -30.040  -7.618 141.246  1.00  0.00    -0.256 NA
ATOM      2  C   UNL     1     -29.820  -8.744 141.648  1.00  0.00     0.120 C 
ATOM      3  C   UNL     1     -29.506  -7.448 139.982  1.00  0.00     0.162 C 
ATOM      4  C   UNL     1     -28.858  -9.480 140.950  1.00  0.00     0.073 C 
ATOM      5  C   UNL     1     -28.616  -8.546 139.812  1.00  0.00    -0.099 C 
ENDROOT
TORSDOF 0
ENDMDL
