6W4K - minimized_ligand
                    3D
 Structure written by MMmdl.
 57 60  0  0  1  0            999 V2000
  -69.0503  -31.5386  -38.9600 N   0  0  0  0  0  0
  -68.6155  -32.4160  -38.3492 C   0  0  0  0  0  0
  -68.0705  -33.5224  -37.5815 C   0  0  0  0  0  0
  -68.8723  -34.6068  -37.2215 C   0  0  0  0  0  0
  -70.1688  -34.6571  -37.6068 F   0  0  0  0  0  0
  -68.3379  -35.6501  -36.4621 C   0  0  0  0  0  0
  -66.7296  -33.5028  -37.2048 C   0  0  0  0  0  0
  -66.1970  -34.5649  -36.4826 C   0  0  0  0  0  0
  -66.9848  -35.6542  -36.0838 C   0  0  0  0  0  0
  -66.3586  -36.7684  -35.3015 C   0  0  0  0  0  0
  -66.6624  -38.1013  -35.4137 C   0  0  0  0  0  0
  -67.6131  -38.6514  -36.4133 C   0  0  0  0  0  0
  -68.7825  -39.3083  -36.0039 C   0  0  0  0  0  0
  -69.6832  -39.8118  -36.9419 C   0  0  0  0  0  0
  -70.8190  -40.4099  -36.5223 F   0  0  0  0  0  0
  -69.4146  -39.6924  -38.3095 C   0  0  0  0  0  0
  -70.2966  -40.1300  -39.2664 O   0  0  0  0  0  0
  -70.4259  -41.5390  -39.3765 C   0  0  0  0  0  0
  -68.2495  -39.0485  -38.7198 C   0  0  0  0  0  0
  -67.3549  -38.5312  -37.7850 C   0  0  0  0  0  0
  -65.9089  -39.0671  -34.6021 C   0  0  0  0  0  0
  -66.1166  -40.2842  -34.6793 O   0  0  0  0  0  0
  -65.4636  -36.3148  -34.3700 N   0  0  0  0  0  0
  -64.7800  -37.1222  -33.6266 C   0  0  0  0  0  0
  -64.9388  -38.4979  -33.8017 N   0  0  0  0  0  0
  -64.0017  -39.4798  -33.2166 C   0  0  0  0  0  0
  -63.8915  -36.5721  -32.6359 N   0  0  0  0  0  0
  -63.7847  -37.1089  -31.2693 C   0  0  0  0  0  0
  -62.3026  -37.2347  -30.8647 C   0  0  0  0  0  0
  -61.5837  -35.8795  -30.9978 C   0  0  0  0  0  0
  -60.0807  -36.1215  -30.8161 N   0  3  0  0  0  0
  -61.8287  -35.2424  -32.3833 C   0  0  0  0  0  0
  -63.3443  -35.2048  -32.6978 C   0  0  0  0  0  0
  -68.9927  -36.4562  -36.1693 H   0  0  0  0  0  0
  -66.0889  -32.6765  -37.4713 H   0  0  0  0  0  0
  -65.1511  -34.5386  -36.2194 H   0  0  0  0  0  0
  -69.0020  -39.4166  -34.9510 H   0  0  0  0  0  0
  -70.9793  -41.7831  -40.2828 H   0  0  0  0  0  0
  -69.4558  -42.0358  -39.4401 H   0  0  0  0  0  0
  -70.9787  -41.9506  -38.5322 H   0  0  0  0  0  0
  -68.0480  -38.9630  -39.7737 H   0  0  0  0  0  0
  -66.4565  -38.0366  -38.1266 H   0  0  0  0  0  0
  -63.0505  -39.0268  -32.9454 H   0  0  0  0  0  0
  -64.4319  -39.9450  -32.3286 H   0  0  0  0  0  0
  -63.7516  -40.2762  -33.9206 H   0  0  0  0  0  0
  -64.2910  -38.0648  -31.1475 H   0  0  0  0  0  0
  -64.2960  -36.4283  -30.5860 H   0  0  0  0  0  0
  -61.8128  -37.9855  -31.4861 H   0  0  0  0  0  0
  -62.2420  -37.6123  -29.8452 H   0  0  0  0  0  0
  -61.8756  -35.2131  -30.1872 H   0  0  0  0  0  0
  -59.5709  -35.2524  -30.8692 H   0  0  0  0  0  0
  -59.9225  -36.5363  -29.9037 H   0  0  0  0  0  0
  -59.7331  -36.7542  -31.5225 H   0  0  0  0  0  0
  -61.3211  -35.8179  -33.1602 H   0  0  0  0  0  0
  -61.4039  -34.2395  -32.4343 H   0  0  0  0  0  0
  -63.8685  -34.5750  -31.9773 H   0  0  0  0  0  0
  -63.5147  -34.7434  -33.6683 H   0  0  0  0  0  0
  1  2  3  0  0  0
  2  3  1  0  0  0
  3  4  1  0  0  0
  3  7  2  0  0  0
  4  5  1  0  0  0
  4  6  2  0  0  0
  6  9  1  0  0  0
  6 34  1  0  0  0
  7  8  1  0  0  0
  7 35  1  0  0  0
  8  9  2  0  0  0
  8 36  1  0  0  0
  9 10  1  0  0  0
 10 11  2  0  0  0
 10 23  1  0  0  0
 11 12  1  0  0  0
 11 21  1  0  0  0
 12 13  1  0  0  0
 12 20  2  0  0  0
 13 14  2  0  0  0
 13 37  1  0  0  0
 14 15  1  0  0  0
 14 16  1  0  0  0
 16 17  1  0  0  0
 16 19  2  0  0  0
 17 18  1  0  0  0
 18 38  1  0  0  0
 18 39  1  0  0  0
 18 40  1  0  0  0
 19 20  1  0  0  0
 19 41  1  0  0  0
 20 42  1  0  0  0
 21 22  2  0  0  0
 21 25  1  0  0  0
 23 24  2  0  0  0
 24 25  1  0  0  0
 24 27  1  0  0  0
 25 26  1  0  0  0
 26 43  1  0  0  0
 26 44  1  0  0  0
 26 45  1  0  0  0
 27 28  1  0  0  0
 27 33  1  0  0  0
 28 29  1  0  0  0
 28 46  1  0  0  0
 28 47  1  0  0  0
 29 30  1  0  0  0
 29 48  1  0  0  0
 29 49  1  0  0  0
 30 31  1  0  0  0
 30 32  1  0  0  0
 30 50  1  0  0  0
 31 51  1  0  0  0
 31 52  1  0  0  0
 31 53  1  0  0  0
 32 33  1  0  0  0
 32 54  1  0  0  0
 32 55  1  0  0  0
 33 56  1  0  0  0
 33 57  1  0  0  0
M  CHG  1  31   1
M  END
> <s_m_entry_id>
145

> <s_m_entry_name>
6w4k.1_ligand

> <s_m_subgroup_title>
6W4K - minimized_split_by_structure

> <s_m_subgroupid>
6W4K - minimized_split_by_structure

> <b_m_subgroup_collapsed>
0

$$$$
