5WGL - minimized_ligand
                    3D
 Structure written by MMmdl.
 58 60  0  0  1  0            999 V2000
    2.4009  -28.8339  -28.4144 N   0  0  0  0  0  0
   -4.7756  -40.1013  -28.5219 C   0  0  0  0  0  0
   -5.6981  -41.1827  -24.4899 C   0  0  0  0  0  0
   -5.2162  -38.9311  -29.1568 C   0  0  0  0  0  0
   -5.3786  -40.5494  -25.6880 C   0  0  0  0  0  0
    1.2882  -37.6250  -28.2429 C   0  0  0  0  0  0
    3.1578  -37.2203  -29.8581 C   0  0  0  0  0  0
    3.1050  -35.7945  -30.4485 C   0  0  0  0  0  0
    2.6312  -34.7173  -29.4564 C   0  0  0  0  0  0
    2.5935  -33.3034  -30.0541 C   0  0  0  0  0  0
    2.0485  -32.2758  -29.0502 C   0  0  0  0  0  0
    1.9052  -30.8700  -29.6566 C   0  0  0  0  0  0
    1.5282  -29.8258  -28.6025 C   0  0  0  0  0  0
   -0.0743  -38.2388  -28.0648 C   0  0  0  0  0  0
   -0.5378  -38.6009  -26.8015 C   0  0  0  0  0  0
   -0.9582  -38.4664  -29.1225 C   0  0  0  0  0  0
   -2.5431  -39.3892  -27.6864 C   0  0  0  0  0  0
   -6.2045  -38.9930  -30.1373 C   0  0  0  0  0  0
   -6.7341  -40.2243  -30.5123 C   0  0  0  0  0  0
   -6.3012  -41.3956  -29.8976 C   0  0  0  0  0  0
   -5.3353  -41.3319  -28.8978 C   0  0  0  0  0  0
   -4.1141  -40.7197  -26.2739 C   0  0  0  0  0  0
   -3.1861  -41.5616  -25.6409 C   0  0  0  0  0  0
   -3.5068  -42.2013  -24.4459 C   0  0  0  0  0  0
   -4.7601  -42.0052  -23.8737 C   0  0  0  0  0  0
    1.8501  -37.7529  -29.4610 N   0  0  0  0  0  0
   -1.7537  -39.1570  -26.6003 N   0  0  0  0  0  0
   -2.1745  -39.0370  -28.9504 N   0  0  0  0  0  0
   -3.7953  -40.0525  -27.4922 N   0  0  0  0  0  0
    1.8398  -37.0546  -27.2997 O   0  0  0  0  0  0
    2.2697  -27.8704  -27.5234 O   0  5  0  0  0  0
    0.4834  -29.9217  -27.9526 O   0  0  0  0  0  0
    3.2454  -28.8389  -28.9714 H   0  0  0  0  0  0
   -6.6696  -41.0364  -24.0416 H   0  0  0  0  0  0
   -4.8113  -37.9691  -28.8755 H   0  0  0  0  0  0
   -6.1159  -39.9104  -26.1509 H   0  0  0  0  0  0
    3.8565  -37.2471  -29.0190 H   0  0  0  0  0  0
    3.5700  -37.8950  -30.6096 H   0  0  0  0  0  0
    2.4574  -35.7924  -31.3268 H   0  0  0  0  0  0
    4.0987  -35.5288  -30.8119 H   0  0  0  0  0  0
    3.2763  -34.7243  -28.5765 H   0  0  0  0  0  0
    1.6286  -34.9636  -29.1083 H   0  0  0  0  0  0
    1.9729  -33.3017  -30.9496 H   0  0  0  0  0  0
    3.5909  -33.0086  -30.3819 H   0  0  0  0  0  0
    2.7176  -32.2444  -28.1882 H   0  0  0  0  0  0
    1.0781  -32.6079  -28.6776 H   0  0  0  0  0  0
    1.1419  -30.8626  -30.4330 H   0  0  0  0  0  0
    2.8396  -30.5885  -30.1463 H   0  0  0  0  0  0
    0.0596  -38.4518  -25.9131 H   0  0  0  0  0  0
   -0.7056  -38.2035  -30.1398 H   0  0  0  0  0  0
   -6.5624  -38.0896  -30.6097 H   0  0  0  0  0  0
   -7.4927  -40.2682  -31.2807 H   0  0  0  0  0  0
   -6.7211  -42.3467  -30.1892 H   0  0  0  0  0  0
   -5.0141  -42.2471  -28.4220 H   0  0  0  0  0  0
   -2.2115  -41.7323  -26.0748 H   0  0  0  0  0  0
   -2.7849  -42.8453  -23.9644 H   0  0  0  0  0  0
   -5.0073  -42.4975  -22.9438 H   0  0  0  0  0  0
    1.3628  -38.2870  -30.1649 H   0  0  0  0  0  0
  1 13  1  0  0  0
  1 31  1  0  0  0
  1 33  1  0  0  0
  2  4  1  0  0  0
  2 21  2  0  0  0
  2 29  1  0  0  0
  3  5  1  0  0  0
  3 25  2  0  0  0
  3 34  1  0  0  0
  4 18  2  0  0  0
  4 35  1  0  0  0
  5 22  2  0  0  0
  5 36  1  0  0  0
  6 14  1  0  0  0
  6 26  1  0  0  0
  6 30  2  0  0  0
  7  8  1  0  0  0
  7 26  1  0  0  0
  7 37  1  0  0  0
  7 38  1  0  0  0
  8  9  1  0  0  0
  8 39  1  0  0  0
  8 40  1  0  0  0
  9 10  1  0  0  0
  9 41  1  0  0  0
  9 42  1  0  0  0
 10 11  1  0  0  0
 10 43  1  0  0  0
 10 44  1  0  0  0
 11 12  1  0  0  0
 11 45  1  0  0  0
 11 46  1  0  0  0
 12 13  1  0  0  0
 12 47  1  0  0  0
 12 48  1  0  0  0
 13 32  2  0  0  0
 14 15  1  0  0  0
 14 16  2  0  0  0
 15 27  2  0  0  0
 15 49  1  0  0  0
 16 28  1  0  0  0
 16 50  1  0  0  0
 17 27  1  0  0  0
 17 28  2  0  0  0
 17 29  1  0  0  0
 18 19  1  0  0  0
 18 51  1  0  0  0
 19 20  2  0  0  0
 19 52  1  0  0  0
 20 21  1  0  0  0
 20 53  1  0  0  0
 21 54  1  0  0  0
 22 23  1  0  0  0
 22 29  1  0  0  0
 23 24  2  0  0  0
 23 55  1  0  0  0
 24 25  1  0  0  0
 24 56  1  0  0  0
 25 57  1  0  0  0
 26 58  1  0  0  0
M  CHG  1  31  -1
M  END
> <s_m_entry_id>
9

> <s_m_entry_name>
5wgl.1_ligand

> <s_m_subgroup_title>
5WGL - minimized_split_by_structure

> <s_m_subgroupid>
5WGL - minimized_split_by_structure

> <b_m_subgroup_collapsed>
0

$$$$
