7OTE - minimized_ligand
                    3D
 Structure written by MMmdl.
 67 71  0  0  1  0            999 V2000
   10.3472    7.4374   -4.2016 N   0  0  0  0  0  0
   -4.1542    7.8319    2.9974 N   0  0  0  0  0  0
    5.7802    9.0382   -3.6794 C   0  0  0  0  0  0
    4.6242    9.8637   -3.3541 C   0  0  0  0  0  0
    4.5621   11.1971   -3.8084 C   0  0  0  0  0  0
    3.4654   11.9848   -3.4662 C   0  0  0  0  0  0
    2.4258   11.4595   -2.7115 C   0  0  0  0  0  0
    3.5718    9.3361   -2.5849 C   0  0  0  0  0  0
    0.3132    8.8471    0.5699 C   0  0  0  0  0  0
   -1.9870    8.9516    1.3472 C   0  0  0  0  0  0
   -0.3291    7.7934    2.6790 C   0  0  0  0  0  0
   -2.7757    7.8770    3.5123 C   0  0  0  0  0  0
   -4.3536    6.6269    2.1815 C   0  0  0  0  0  0
   -5.7686    6.5703    1.5759 C   0  0  0  0  0  0
   -5.1186    7.8793    4.1063 C   0  0  0  0  0  0
   10.3390    5.9091   -6.1990 C   0  0  0  0  0  0
    9.4888    5.3639   -7.1631 C   0  0  0  0  0  0
    8.1335    5.6942   -7.1534 C   0  0  0  0  0  0
    7.5592    6.5343   -6.2544 N   0  0  0  0  0  0
    8.4076    7.0408   -5.3355 N   0  0  0  0  0  0
    9.7857    6.7760   -5.2409 C   0  0  0  0  0  0
    9.3444    8.0859   -3.6547 C   0  0  0  0  0  0
    8.1260    7.9157   -4.3061 C   0  0  0  0  0  0
    6.8335    8.5005   -3.9878 C   0  0  0  0  0  0
    2.4569   10.1315   -2.2794 C   0  0  0  0  0  0
    5.6444   11.8323   -4.6767 C   0  0  0  0  0  0
    1.2341    9.5853   -1.5998 C   0  0  0  0  0  0
    0.1730    9.6049   -2.2173 O   0  0  0  0  0  0
    1.3655    9.1552   -0.3269 N   0  0  0  0  0  0
   -1.0141    9.2764    0.4086 C   0  0  0  0  0  0
   -1.6733    8.1937    2.4818 C   0  0  0  0  0  0
    0.6383    8.1242    1.7161 C   0  0  0  0  0  0
    0.1360    7.0346    3.9292 C   0  0  0  0  0  0
   -0.0589    5.7302    3.7433 F   0  0  0  0  0  0
    1.4338    7.2332    4.1680 F   0  0  0  0  0  0
   -0.5156    7.4196    5.0250 F   0  0  0  0  0  0
   -6.5867    7.8383    3.6189 C   0  0  0  0  0  0
   -8.2373    6.5530    2.1678 C   0  0  0  0  0  0
   -6.8005    6.5991    2.7226 N   0  3  0  0  0  0
    3.4085   13.0118   -3.7953 H   0  0  0  0  0  0
    1.5790   12.0929   -2.4851 H   0  0  0  0  0  0
    3.6016    8.3030   -2.2640 H   0  0  0  0  0  0
   -2.9942    9.3061    1.1838 H   0  0  0  0  0  0
   -2.5674    6.9247    4.0018 H   0  0  0  0  0  0
   -2.7029    8.6465    4.2820 H   0  0  0  0  0  0
   -4.1764    5.7303    2.7761 H   0  0  0  0  0  0
   -3.6192    6.6094    1.3785 H   0  0  0  0  0  0
   -5.9253    5.6531    1.0092 H   0  0  0  0  0  0
   -5.9637    7.4213    0.9205 H   0  0  0  0  0  0
   -4.9650    8.7947    4.6800 H   0  0  0  0  0  0
   -4.9399    7.0507    4.7954 H   0  0  0  0  0  0
   11.3919    5.6653   -6.1874 H   0  0  0  0  0  0
    9.8769    4.6889   -7.9130 H   0  0  0  0  0  0
    7.4696    5.2771   -7.8969 H   0  0  0  0  0  0
    9.4931    8.7024   -2.7808 H   0  0  0  0  0  0
    5.5949   12.9209   -4.6394 H   0  0  0  0  0  0
    6.6412   11.5559   -4.3424 H   0  0  0  0  0  0
    5.5335   11.5173   -5.7141 H   0  0  0  0  0  0
    2.2991    9.0971    0.0505 H   0  0  0  0  0  0
   -1.3240    9.8832   -0.4263 H   0  0  0  0  0  0
    1.6643    7.8170    1.8625 H   0  0  0  0  0  0
   -6.8395    8.7193    3.0260 H   0  0  0  0  0  0
   -7.2878    7.7553    4.4504 H   0  0  0  0  0  0
   -8.9118    6.5302    3.0248 H   0  0  0  0  0  0
   -8.3940    7.4404    1.5520 H   0  0  0  0  0  0
   -8.3252    5.6356    1.5828 H   0  0  0  0  0  0
   -6.6613    5.7733    3.2907 H   0  0  0  0  0  0
  1 21  2  0  0  0
  1 22  1  0  0  0
  2 12  1  0  0  0
  2 13  1  0  0  0
  2 15  1  0  0  0
  3  4  1  0  0  0
  3 24  3  0  0  0
  4  5  1  0  0  0
  4  8  2  0  0  0
  5  6  2  0  0  0
  5 26  1  0  0  0
  6  7  1  0  0  0
  6 40  1  0  0  0
  7 25  2  0  0  0
  7 41  1  0  0  0
  8 25  1  0  0  0
  8 42  1  0  0  0
  9 29  1  0  0  0
  9 30  2  0  0  0
  9 32  1  0  0  0
 10 30  1  0  0  0
 10 31  2  0  0  0
 10 43  1  0  0  0
 11 31  1  0  0  0
 11 32  2  0  0  0
 11 33  1  0  0  0
 12 31  1  0  0  0
 12 44  1  0  0  0
 12 45  1  0  0  0
 13 14  1  0  0  0
 13 46  1  0  0  0
 13 47  1  0  0  0
 14 39  1  0  0  0
 14 48  1  0  0  0
 14 49  1  0  0  0
 15 37  1  0  0  0
 15 50  1  0  0  0
 15 51  1  0  0  0
 16 17  2  0  0  0
 16 21  1  0  0  0
 16 52  1  0  0  0
 17 18  1  0  0  0
 17 53  1  0  0  0
 18 19  2  0  0  0
 18 54  1  0  0  0
 19 20  1  0  0  0
 20 21  1  0  0  0
 20 23  1  0  0  0
 22 23  2  0  0  0
 22 55  1  0  0  0
 23 24  1  0  0  0
 25 27  1  0  0  0
 26 56  1  0  0  0
 26 57  1  0  0  0
 26 58  1  0  0  0
 27 28  2  0  0  0
 27 29  1  0  0  0
 29 59  1  0  0  0
 30 60  1  0  0  0
 32 61  1  0  0  0
 33 34  1  0  0  0
 33 35  1  0  0  0
 33 36  1  0  0  0
 37 39  1  0  0  0
 37 62  1  0  0  0
 37 63  1  0  0  0
 38 39  1  0  0  0
 38 64  1  0  0  0
 38 65  1  0  0  0
 38 66  1  0  0  0
 39 67  1  0  0  0
M  CHG  1  39   1
M  END
> <s_m_entry_id>
117

> <s_m_entry_name>
7ote.1_ligand

> <s_m_subgroup_title>
7OTE - minimized_split_by_structure

> <s_m_subgroupid>
7OTE - minimized_split_by_structure

> <b_m_subgroup_collapsed>
0

$$$$
