2ITZ - minimized_ligand
                    3D
 Structure written by MMmdl.
 56 59  0  0  1  0            999 V2000
  -47.2155   -4.6213  -17.2175 C   0  0  0  0  0  0
  -46.8179   -6.0537  -16.8218 C   0  0  0  0  0  0
  -46.7406   -6.8924  -17.9700 O   0  0  0  0  0  0
  -47.9706   -7.0265  -18.6758 C   0  0  0  0  0  0
  -48.4397   -5.6610  -19.2057 C   0  0  0  0  0  0
  -48.5327   -4.6603  -18.0280 N   0  3  0  0  0  0
  -48.9651   -3.2107  -18.3915 C   0  0  0  0  0  0
  -49.2656   -2.9642  -19.8857 C   0  0  0  0  0  0
  -49.4851   -1.4760  -20.1540 C   0  0  0  0  0  0
  -50.6117   -1.0517  -19.3909 O   0  0  0  0  0  0
  -51.6888   -0.4615  -20.0140 C   0  0  0  0  0  0
  -52.4688    0.3985  -19.2347 C   0  0  0  0  0  0
  -53.5497    1.0718  -19.8182 C   0  0  0  0  0  0
  -52.0957    0.5518  -17.9106 O   0  0  0  0  0  0
  -52.7920    1.4731  -17.0791 C   0  0  0  0  0  0
  -52.0055   -0.6874  -21.3589 C   0  0  0  0  0  0
  -53.0574    0.0232  -21.9763 C   0  0  0  0  0  0
  -53.8491    0.9053  -21.1857 C   0  0  0  0  0  0
  -54.8868    1.6020  -21.7189 N   0  0  0  0  0  0
  -55.1233    1.4201  -23.0372 C   0  0  0  0  0  0
  -54.4157    0.6599  -23.8899 N   0  0  0  0  0  0
  -53.3812   -0.0378  -23.3621 C   0  0  0  0  0  0
  -52.6302   -0.8211  -24.2544 N   0  0  0  0  0  0
  -52.6692   -0.8045  -25.6555 C   0  0  0  0  0  0
  -52.6703    0.4064  -26.3604 C   0  0  0  0  0  0
  -52.7510    0.4137  -27.7519 C   0  0  0  0  0  0
  -52.7652    1.9175  -28.6023 Cl  0  0  0  0  0  0
  -52.8222   -0.7956  -28.4458 C   0  0  0  0  0  0
  -52.9016   -0.8044  -29.7935 F   0  0  0  0  0  0
  -52.8016   -2.0028  -27.7502 C   0  0  0  0  0  0
  -52.7139   -2.0096  -26.3573 C   0  0  0  0  0  0
  -46.4644   -4.1582  -17.8604 H   0  0  0  0  0  0
  -47.3943   -3.9961  -16.3411 H   0  0  0  0  0  0
  -47.5315   -6.4756  -16.1113 H   0  0  0  0  0  0
  -45.8476   -6.0505  -16.3240 H   0  0  0  0  0  0
  -48.7229   -7.4816  -18.0308 H   0  0  0  0  0  0
  -47.8188   -7.7141  -19.5083 H   0  0  0  0  0  0
  -49.4266   -5.7209  -19.6657 H   0  0  0  0  0  0
  -47.7105   -5.2594  -19.9098 H   0  0  0  0  0  0
  -49.2401   -5.0355  -17.4037 H   0  0  0  0  0  0
  -48.1780   -2.5334  -18.0520 H   0  0  0  0  0  0
  -49.8429   -3.0346  -17.7676 H   0  0  0  0  0  0
  -50.1442   -3.5250  -20.2036 H   0  0  0  0  0  0
  -48.4313   -3.2857  -20.5064 H   0  0  0  0  0  0
  -49.5197   -1.2706  -21.2230 H   0  0  0  0  0  0
  -48.6191   -0.9138  -19.8030 H   0  0  0  0  0  0
  -54.1594    1.7500  -19.2451 H   0  0  0  0  0  0
  -52.3226    1.4958  -16.0956 H   0  0  0  0  0  0
  -52.7678    2.4881  -17.4779 H   0  0  0  0  0  0
  -53.8270    1.1677  -16.9389 H   0  0  0  0  0  0
  -51.4405   -1.3799  -21.9623 H   0  0  0  0  0  0
  -55.9620    1.9234  -23.4709 H   0  0  0  0  0  0
  -52.0672   -1.5465  -23.8351 H   0  0  0  0  0  0
  -52.6178    1.3455  -25.8281 H   0  0  0  0  0  0
  -52.8604   -2.9353  -28.2929 H   0  0  0  0  0  0
  -52.7093   -2.9522  -25.8284 H   0  0  0  0  0  0
  1  2  1  0  0  0
  1  6  1  0  0  0
  1 32  1  0  0  0
  1 33  1  0  0  0
  2  3  1  0  0  0
  2 34  1  0  0  0
  2 35  1  0  0  0
  3  4  1  0  0  0
  4  5  1  0  0  0
  4 36  1  0  0  0
  4 37  1  0  0  0
  5  6  1  0  0  0
  5 38  1  0  0  0
  5 39  1  0  0  0
  6  7  1  0  0  0
  6 40  1  0  0  0
  7  8  1  0  0  0
  7 41  1  0  0  0
  7 42  1  0  0  0
  8  9  1  0  0  0
  8 43  1  0  0  0
  8 44  1  0  0  0
  9 10  1  0  0  0
  9 45  1  0  0  0
  9 46  1  0  0  0
 10 11  1  0  0  0
 11 12  1  0  0  0
 11 16  2  0  0  0
 12 13  2  0  0  0
 12 14  1  0  0  0
 13 18  1  0  0  0
 13 47  1  0  0  0
 14 15  1  0  0  0
 15 48  1  0  0  0
 15 49  1  0  0  0
 15 50  1  0  0  0
 16 17  1  0  0  0
 16 51  1  0  0  0
 17 18  1  0  0  0
 17 22  2  0  0  0
 18 19  2  0  0  0
 19 20  1  0  0  0
 20 21  2  0  0  0
 20 52  1  0  0  0
 21 22  1  0  0  0
 22 23  1  0  0  0
 23 24  1  0  0  0
 23 53  1  0  0  0
 24 25  1  0  0  0
 24 31  2  0  0  0
 25 26  2  0  0  0
 25 54  1  0  0  0
 26 27  1  0  0  0
 26 28  1  0  0  0
 28 29  1  0  0  0
 28 30  2  0  0  0
 30 31  1  0  0  0
 30 55  1  0  0  0
 31 56  1  0  0  0
M  CHG  1   6   1
M  END
> <s_m_entry_id>
139

> <s_m_entry_name>
2itz.1_ligand

> <s_m_subgroup_title>
2ITZ - minimized_split_by_structure

> <s_m_subgroupid>
2ITZ - minimized_split_by_structure

> <b_m_subgroup_collapsed>
0

$$$$
