7WC7 - minimized_ligand
                    3D
 Structure written by MMmdl.
 52 55  0  0  1  0            999 V2000
  -22.8300  -12.2464  144.9222 C   0  0  0  0  0  0
  -24.5959  -15.7514  147.0277 C   0  0  0  0  0  0
  -26.3021  -12.5383  138.9668 C   0  0  0  0  0  0
  -27.9752  -12.0916  142.9429 C   0  0  0  0  0  0
  -30.7438   -8.7151  143.7184 C   0  0  0  0  0  0
  -29.9126   -9.8233  143.5294 C   0  0  0  0  0  0
  -30.9176   -7.7282  142.7399 C   0  0  0  0  0  0
  -29.1844   -7.8013  139.5252 C   0  0  0  0  0  0
  -23.4167  -13.6378  144.6471 C   0  0  0  0  0  0
  -24.5374  -14.2367  146.7723 C   0  0  0  0  0  0
  -27.6352   -9.9854  139.8140 C   0  0  0  0  0  0
  -26.9662  -13.6072  141.1564 C   0  0  0  0  0  0
  -25.9268  -13.7938  144.7901 C   0  0  0  0  0  0
  -28.3456  -11.1815  142.0130 C   0  0  0  0  0  0
  -28.6829   -8.9354  140.1318 C   0  0  0  0  0  0
  -29.2033  -10.0121  142.3347 C   0  0  0  0  0  0
  -30.1911   -7.8924  141.5558 C   0  0  0  0  0  0
  -29.3455   -9.0031  141.3834 C   0  0  0  0  0  0
  -27.1783  -13.3641  142.6688 C   0  0  1  0  0  0
  -27.9631  -11.3428  140.5178 C   0  0  2  0  0  0
  -25.9671  -13.4468  143.4859 N   0  0  0  0  0  0
  -30.0753   -7.1771  140.3781 N   0  0  0  0  0  0
  -26.7292  -12.2766  140.4228 N   0  3  2  0  0  0
  -24.6897  -13.8790  145.3518 N   0  0  0  0  0  0
  -26.9599  -14.0416  145.4203 O   0  0  0  0  0  0
  -21.9060  -12.0971  144.3631 H   0  0  0  0  0  0
  -23.5291  -11.4625  144.6302 H   0  0  0  0  0  0
  -22.5951  -12.1109  145.9773 H   0  0  0  0  0  0
  -24.4421  -15.9691  148.0849 H   0  0  0  0  0  0
  -25.5633  -16.1674  146.7442 H   0  0  0  0  0  0
  -23.8276  -16.2808  146.4641 H   0  0  0  0  0  0
  -25.8304  -11.6143  138.6424 H   0  0  0  0  0  0
  -25.5620  -13.3388  138.9586 H   0  0  0  0  0  0
  -27.1870  -12.7818  138.3782 H   0  0  0  0  0  0
  -28.2657  -11.9280  143.9690 H   0  0  0  0  0  0
  -31.2730   -8.6295  144.6530 H   0  0  0  0  0  0
  -29.8500  -10.5480  144.3266 H   0  0  0  0  0  0
  -31.5760   -6.8890  142.9058 H   0  0  0  0  0  0
  -28.9542   -7.3669  138.5644 H   0  0  0  0  0  0
  -22.7007  -14.4001  144.9497 H   0  0  0  0  0  0
  -23.5293  -13.7605  143.5703 H   0  0  0  0  0  0
  -23.5962  -13.8453  147.1572 H   0  0  0  0  0  0
  -25.3191  -13.7516  147.3585 H   0  0  0  0  0  0
  -26.6615   -9.6487  140.1633 H   0  0  0  0  0  0
  -27.5550  -10.1080  138.7346 H   0  0  0  0  0  0
  -27.8462  -14.0481  140.6873 H   0  0  0  0  0  0
  -26.0949  -14.2378  140.9683 H   0  0  0  0  0  0
  -27.7853  -14.2111  142.9878 H   0  0  0  0  0  0
  -28.7776  -11.8488  139.9953 H   0  0  0  0  0  0
  -25.1347  -13.0459  143.0720 H   0  0  0  0  0  0
  -30.5556   -6.3229  140.1270 H   0  0  0  0  0  0
  -25.9496  -11.8237  140.8929 H   0  0  0  0  0  0
  1  9  1  0  0  0
  1 26  1  0  0  0
  1 27  1  0  0  0
  1 28  1  0  0  0
  2 10  1  0  0  0
  2 29  1  0  0  0
  2 30  1  0  0  0
  2 31  1  0  0  0
  3 23  1  0  0  0
  3 32  1  0  0  0
  3 33  1  0  0  0
  3 34  1  0  0  0
  4 14  2  0  0  0
  4 19  1  0  0  0
  4 35  1  0  0  0
  5  6  1  0  0  0
  5  7  2  0  0  0
  5 36  1  0  0  0
  6 16  2  0  0  0
  6 37  1  0  0  0
  7 17  1  0  0  0
  7 38  1  0  0  0
  8 15  2  0  0  0
  8 22  1  0  0  0
  8 39  1  0  0  0
  9 24  1  0  0  0
  9 40  1  0  0  0
  9 41  1  0  0  0
 10 24  1  0  0  0
 10 42  1  0  0  0
 10 43  1  0  0  0
 11 15  1  0  0  0
 11 20  1  0  0  0
 11 44  1  0  0  0
 11 45  1  0  0  0
 12 19  1  0  0  0
 12 23  1  0  0  0
 12 46  1  0  0  0
 12 47  1  0  0  0
 13 21  1  0  0  0
 13 24  1  0  0  0
 13 25  2  0  0  0
 14 16  1  0  0  0
 14 20  1  0  0  0
 15 18  1  0  0  0
 16 18  1  0  0  0
 17 18  2  0  0  0
 17 22  1  0  0  0
 19 21  1  0  0  0
 19 48  1  0  0  0
 20 23  1  0  0  0
 20 49  1  0  0  0
 21 50  1  0  0  0
 22 51  1  0  0  0
 23 52  1  0  0  0
M  CHG  1  23   1
M  END
> <s_m_entry_id>
72

> <s_m_entry_name>
7wc7.1_ligand

> <s_m_subgroup_title>
7WC7 - minimized_split_by_structure

> <s_m_subgroupid>
7WC7 - minimized_split_by_structure

> <b_m_subgroup_collapsed>
0

$$$$
