1XLX - prepared_molecule2
                    3D
 Schrodinger Suite 2023-1.
 49 51  0  0  1  0            999 V2000
    7.9044    4.7482   -6.6175 O   0  5  0  0  0  0
    7.5727    3.5598   -6.8390 C   0  0  0  0  0  0
    8.3601    2.5860   -6.7684 O   0  0  0  0  0  0
    6.1084    3.3114   -7.2950 C   0  0  1  0  0  0
    6.0834    2.8177   -8.7586 C   0  0  0  0  0  0
    4.6117    2.7632   -9.2189 C   0  0  0  0  0  0
    5.3969    2.2666   -6.3960 C   0  0  0  0  0  0
    3.9064    2.1950   -6.8153 C   0  0  0  0  0  0
    3.7323    1.8264   -8.3264 C   0  0  2  0  0  0
    4.2427    0.4481   -8.5043 C   0  0  0  0  0  0
    4.6348   -0.6298   -8.6550 N   0  0  0  0  0  0
    2.2792    1.8013   -8.8376 C   0  0  0  0  0  0
    1.1761    2.2159   -8.0832 C   0  0  0  0  0  0
   -0.1135    2.1318   -8.6114 C   0  0  0  0  0  0
   -0.3306    1.6552   -9.9171 C   0  0  0  0  0  0
   -1.5810    1.5317  -10.4990 O   0  0  0  0  0  0
   -2.7365    1.9228   -9.7668 C   0  0  0  0  0  0
    0.7758    1.2879  -10.6946 C   0  0  0  0  0  0
    2.0525    1.3286  -10.1305 C   0  0  0  0  0  0
    0.5599    0.8687  -11.9915 O   0  0  0  0  0  0
    1.5965    1.0487  -12.9678 C   0  0  0  0  0  0
    1.8338   -0.2875  -13.6709 C   0  0  0  0  0  0
    0.7596   -0.3396  -14.7505 C   0  0  0  0  0  0
    0.6567    1.1023  -15.2358 C   0  0  0  0  0  0
    1.0236    1.9812  -14.0372 C   0  0  0  0  0  0
    5.5647    4.2537   -7.2245 H   0  0  0  0  0  0
    6.5295    1.8257   -8.8557 H   0  0  0  0  0  0
    6.6356    3.4944   -9.4132 H   0  0  0  0  0  0
    4.5896    2.4413  -10.2603 H   0  0  0  0  0  0
    4.1921    3.7696   -9.2145 H   0  0  0  0  0  0
    5.4616    2.5443   -5.3420 H   0  0  0  0  0  0
    5.8435    1.2763   -6.5004 H   0  0  0  0  0  0
    3.4373    3.1583   -6.6075 H   0  0  0  0  0  0
    3.3899    1.4676   -6.1872 H   0  0  0  0  0  0
    1.2990    2.5848   -7.0766 H   0  0  0  0  0  0
   -0.9379    2.4412   -7.9891 H   0  0  0  0  0  0
   -3.6220    1.7831  -10.3863 H   0  0  0  0  0  0
   -2.8592    1.3131   -8.8722 H   0  0  0  0  0  0
   -2.6972    2.9755   -9.4819 H   0  0  0  0  0  0
    2.9016    0.9646  -10.6850 H   0  0  0  0  0  0
    2.5347    1.4793  -12.6238 H   0  0  0  0  0  0
    1.7510   -1.1254  -12.9838 H   0  0  0  0  0  0
    2.8333   -0.3175  -14.1085 H   0  0  0  0  0  0
   -0.1941   -0.6654  -14.3308 H   0  0  0  0  0  0
    1.0333   -1.0252  -15.5516 H   0  0  0  0  0  0
   -0.3393    1.3335  -15.6168 H   0  0  0  0  0  0
    1.3696    1.2630  -16.0465 H   0  0  0  0  0  0
    1.7316    2.7649  -14.3116 H   0  0  0  0  0  0
    0.1168    2.4682  -13.6750 H   0  0  0  0  0  0
  1  2  1  0  0  0
  2  3  2  0  0  0
  2  4  1  0  0  0
  4  5  1  0  0  0
  4  7  1  0  0  0
  4 26  1  0  0  0
  5  6  1  0  0  0
  5 27  1  0  0  0
  5 28  1  0  0  0
  6  9  1  0  0  0
  6 29  1  0  0  0
  6 30  1  0  0  0
  7  8  1  0  0  0
  7 31  1  0  0  0
  7 32  1  0  0  0
  8  9  1  0  0  0
  8 33  1  0  0  0
  8 34  1  0  0  0
  9 10  1  0  0  0
  9 12  1  0  0  0
 10 11  3  0  0  0
 12 13  2  0  0  0
 12 19  1  0  0  0
 13 14  1  0  0  0
 13 35  1  0  0  0
 14 15  2  0  0  0
 14 36  1  0  0  0
 15 16  1  0  0  0
 15 18  1  0  0  0
 16 17  1  0  0  0
 17 37  1  0  0  0
 17 38  1  0  0  0
 17 39  1  0  0  0
 18 19  2  0  0  0
 18 20  1  0  0  0
 19 40  1  0  0  0
 20 21  1  0  0  0
 21 22  1  0  0  0
 21 25  1  0  0  0
 21 41  1  0  0  0
 22 23  1  0  0  0
 22 42  1  0  0  0
 22 43  1  0  0  0
 23 24  1  0  0  0
 23 44  1  0  0  0
 23 45  1  0  0  0
 24 25  1  0  0  0
 24 46  1  0  0  0
 24 47  1  0  0  0
 25 48  1  0  0  0
 25 49  1  0  0  0
M  CHG  1   1  -1
M  END
> <s_m_subgroup_title>
1XLX-out->1XLX - prepared_split_by_molecule

> <s_m_subgroupid>
1XLX-out->1XLX - prepared_split_by_molecule

> <b_m_subgroup_collapsed>
0

$$$$
