5WFD - prepared_chainB_ligand2
                    3D
 Schrodinger Suite 2023-1.
 78 82  0  0  1  0            999 V2000
   22.6652   -0.4131  -24.0648 C   0  0  0  0  0  0
   23.4719   -0.2160  -22.9392 C   0  0  0  0  0  0
   23.1010   -0.7913  -21.6021 C   0  0  0  0  0  0
   23.1661   -0.7356  -19.1682 C   0  0  0  0  0  0
   23.5089   -0.1860  -20.4029 C   0  0  0  0  0  0
   23.0296   -7.1679  -29.1692 C   0  0  0  0  0  0
   22.4905   -5.7831  -28.8687 C   0  0  0  0  0  0
   21.0511   -4.5728  -27.3661 C   0  0  0  0  0  0
   22.8478   -4.6761  -29.5472 C   0  0  0  0  0  0
   22.7451   -2.1427  -29.9189 C   0  0  0  0  0  0
   22.2717   -3.3892  -29.1819 C   0  0  0  0  0  0
   22.0419   -0.2229  -26.4834 C   0  0  0  0  0  0
   22.9721    0.0906  -25.3426 C   0  0  0  0  0  0
   21.4240   -3.3519  -28.1073 C   0  0  0  0  0  0
   20.7850   -2.0597  -27.5996 C   0  0  0  0  0  0
   26.4860    4.8606  -24.2859 C   0  0  0  0  0  0
   26.7644    3.7552  -23.2500 C   0  0  0  0  0  0
   27.1006    2.3436  -23.8021 C   0  0  2  0  0  0
   28.4834    2.2086  -24.4720 C   0  0  0  0  0  0
   25.9129    2.1518  -26.0286 C   0  0  0  0  0  0
   24.8006    1.5626  -26.5781 C   0  0  0  0  0  0
   24.3991    1.6660  -28.0344 C   0  0  0  0  0  0
   24.1456    0.8733  -25.4788 C   0  0  0  0  0  0
   22.3785   -1.8950  -19.1240 C   0  0  0  0  0  0
   22.5307   -2.0281  -16.6214 C   0  0  0  0  0  0
   22.3150   -2.9393  -15.3813 C   0  0  0  0  0  0
   20.3437   -3.9658  -16.5571 C   0  0  0  0  0  0
   20.6225   -3.0261  -17.7620 C   0  0  0  0  0  0
   22.3358   -1.9606  -21.4709 C   0  0  0  0  0  0
   24.6423    0.5369  -23.0692 C   0  0  0  0  0  0
   24.9593    1.0796  -24.3187 C   0  0  0  0  0  0
   26.0418    1.8545  -24.6941 N   0  0  0  0  0  0
   21.5671   -1.4787  -26.5160 N   0  0  0  0  0  0
   21.6026   -5.7258  -27.8305 N   0  0  0  0  0  0
   21.9915   -2.4899  -17.9179 N   0  0  0  0  0  0
   21.6185   -4.2543  -15.7542 N   0  3  0  0  0  0
   21.9726   -2.4991  -20.2765 N   0  0  0  0  0  0
   21.7483    0.6335  -27.3164 O   0  0  0  0  0  0
   20.3030   -4.6008  -26.3907 O   0  0  0  0  0  0
   21.7509   -0.9766  -23.9388 H   0  0  0  0  0  0
   23.4968   -0.2367  -18.2699 H   0  0  0  0  0  0
   24.0914    0.7231  -20.4105 H   0  0  0  0  0  0
   22.2131   -7.8624  -29.3661 H   0  0  0  0  0  0
   23.6809   -7.1636  -30.0448 H   0  0  0  0  0  0
   23.6063   -7.5462  -28.3244 H   0  0  0  0  0  0
   23.5746   -4.7339  -30.3412 H   0  0  0  0  0  0
   22.6942   -1.2382  -29.3149 H   0  0  0  0  0  0
   23.8006   -2.2486  -30.1729 H   0  0  0  0  0  0
   22.1938   -2.0051  -30.8480 H   0  0  0  0  0  0
   19.7624   -2.2070  -27.2622 H   0  0  0  0  0  0
   20.6714   -1.3690  -28.4335 H   0  0  0  0  0  0
   26.3726    5.8285  -23.7966 H   0  0  0  0  0  0
   27.2921    4.9513  -25.0117 H   0  0  0  0  0  0
   25.5637    4.6704  -24.8346 H   0  0  0  0  0  0
   25.8947    3.6789  -22.5951 H   0  0  0  0  0  0
   27.5782    4.0805  -22.6019 H   0  0  0  0  0  0
   27.1430    1.6660  -22.9488 H   0  0  0  0  0  0
   28.6934    1.1677  -24.7214 H   0  0  0  0  0  0
   28.5602    2.7757  -25.3972 H   0  0  0  0  0  0
   29.2771    2.5399  -23.8017 H   0  0  0  0  0  0
   26.6501    2.7767  -26.5097 H   0  0  0  0  0  0
   24.2000    0.6886  -28.4737 H   0  0  0  0  0  0
   23.5095    2.2798  -28.1677 H   0  0  0  0  0  0
   25.1797    2.1255  -28.6416 H   0  0  0  0  0  0
   23.6034   -1.8572  -16.7223 H   0  0  0  0  0  0
   22.0637   -1.0674  -16.3958 H   0  0  0  0  0  0
   21.6801   -2.4692  -14.6282 H   0  0  0  0  0  0
   23.2553   -3.2328  -14.9127 H   0  0  0  0  0  0
   19.9710   -4.9420  -16.8706 H   0  0  0  0  0  0
   19.6359   -3.5315  -15.8487 H   0  0  0  0  0  0
   19.9639   -2.1659  -17.6394 H   0  0  0  0  0  0
   20.3100   -3.5375  -18.6735 H   0  0  0  0  0  0
   21.9919   -2.5032  -22.3386 H   0  0  0  0  0  0
   25.2905    0.6972  -22.2223 H   0  0  0  0  0  0
   21.7653   -2.0893  -25.7370 H   0  0  0  0  0  0
   21.3395   -6.5664  -27.3383 H   0  0  0  0  0  0
   21.4052   -4.7935  -14.9264 H   0  0  0  0  0  0
   22.2451   -4.8041  -16.3256 H   0  0  0  0  0  0
  1  2  2  0  0  0
  1 13  1  0  0  0
  1 40  1  0  0  0
  2  3  1  0  0  0
  2 30  1  0  0  0
  3  5  1  0  0  0
  3 29  2  0  0  0
  4  5  2  0  0  0
  4 24  1  0  0  0
  4 41  1  0  0  0
  5 42  1  0  0  0
  6  7  1  0  0  0
  6 43  1  0  0  0
  6 44  1  0  0  0
  6 45  1  0  0  0
  7  9  2  0  0  0
  7 34  1  0  0  0
  8 14  1  0  0  0
  8 34  1  0  0  0
  8 39  2  0  0  0
  9 11  1  0  0  0
  9 46  1  0  0  0
 10 11  1  0  0  0
 10 47  1  0  0  0
 10 48  1  0  0  0
 10 49  1  0  0  0
 11 14  2  0  0  0
 12 13  1  0  0  0
 12 33  1  0  0  0
 12 38  2  0  0  0
 13 23  2  0  0  0
 14 15  1  0  0  0
 15 33  1  0  0  0
 15 50  1  0  0  0
 15 51  1  0  0  0
 16 17  1  0  0  0
 16 52  1  0  0  0
 16 53  1  0  0  0
 16 54  1  0  0  0
 17 18  1  0  0  0
 17 55  1  0  0  0
 17 56  1  0  0  0
 18 19  1  0  0  0
 18 32  1  0  0  0
 18 57  1  0  0  0
 19 58  1  0  0  0
 19 59  1  0  0  0
 19 60  1  0  0  0
 20 21  2  0  0  0
 20 32  1  0  0  0
 20 61  1  0  0  0
 21 22  1  0  0  0
 21 23  1  0  0  0
 22 62  1  0  0  0
 22 63  1  0  0  0
 22 64  1  0  0  0
 23 31  1  0  0  0
 24 35  1  0  0  0
 24 37  2  0  0  0
 25 26  1  0  0  0
 25 35  1  0  0  0
 25 65  1  0  0  0
 25 66  1  0  0  0
 26 36  1  0  0  0
 26 67  1  0  0  0
 26 68  1  0  0  0
 27 28  1  0  0  0
 27 36  1  0  0  0
 27 69  1  0  0  0
 27 70  1  0  0  0
 28 35  1  0  0  0
 28 71  1  0  0  0
 28 72  1  0  0  0
 29 37  1  0  0  0
 29 73  1  0  0  0
 30 31  2  0  0  0
 30 74  1  0  0  0
 31 32  1  0  0  0
 33 75  1  0  0  0
 34 76  1  0  0  0
 36 77  1  0  0  0
 36 78  1  0  0  0
M  CHG  1  36   1
M  END
> <s_m_backendhidden_zob_param>
ewoJImFuZ2xlIiA6IAoJWwoJCXsKCQkJImZvcmNlX2NvbnN0YW50IiA6IDYwLjAsCgkJCSJpIiA6IDE5NjA5LAoJCQkiaiIgOiAxMTM0MCwKCQkJImsiIDogMTEzMzksCgkJCSJyZWZlcmVuY2VfdmFsdWUiIDogMS43NjEwODY5NTY1MjE3NDgKCQl9LAoJCXsKCQkJImZvcmNlX2NvbnN0YW50IiA6IDYwLjAsCgkJCSJpIiA6IDE5NjA5LAoJCQkiaiIgOiAxMTM4OCwKCQkJImsiIDogMTEzODcsCgkJCSJyZWZlcmVuY2VfdmFsdWUiIDogMS44OTM5MTMzMDY2MzQzMjAxCgkJfSwKCQl7CgkJCSJmb3JjZV9jb25zdGFudCIgOiA2MC4wLAoJCQkiaSIgOiAxOTYwOSwKCQkJImoiIDogMTE0NTgsCgkJCSJrIiA6IDExNDU3LAoJCQkicmVmZXJlbmNlX3ZhbHVlIiA6IDEuNjQ2NTk3Mjg3MjA3MTU0OAoJCX0sCgkJewoJCQkiZm9yY2VfY29uc3RhbnQiIDogNjAuMCwKCQkJImkiIDogMTk2MDksCgkJCSJqIiA6IDExNDg0LAoJCQkiayIgOiAxMTQ4MywKCQkJInJlZmVyZW5jZV92YWx1ZSIgOiAyLjI5NzkzMTQyMDQxNzI0NDcKCQl9LAoJCXsKCQkJImZvcmNlX2NvbnN0YW50IiA6IDYwLjAsCgkJCSJpIiA6IDE5NjA5LAoJCQkiaiIgOiAxMTQ4NCwKCQkJImsiIDogMTE0ODYsCgkJCSJyZWZlcmVuY2VfdmFsdWUiIDogMi4wNzQ4ODkyNjYyNzgxMTA0CgkJfSwKCQl7CgkJCSJmb3JjZV9jb25zdGFudCIgOiA2MC4wLAoJCQkiaSIgOiAxOTYxMCwKCQkJImoiIDogMTIxMDIsCgkJCSJrIiA6IDEyMTAxLAoJCQkicmVmZXJlbmNlX3ZhbHVlIiA6IDEuODQ1MTc5Mzg4NTUwMTc1OQoJCX0sCgkJewoJCQkiZm9yY2VfY29uc3RhbnQiIDogNjAuMCwKCQkJImkiIDogMTk2MTAsCgkJCSJqIiA6IDEyMTY1LAoJCQkiayIgOiAxMjE2NCwKCQkJInJlZmVyZW5jZV92YWx1ZSIgOiAxLjkzMTY5MzMzNDM3ODc5MjMKCQl9LAoJCXsKCQkJImZvcmNlX2NvbnN0YW50IiA6IDYwLjAsCgkJCSJpIiA6IDE5NjEwLAoJCQkiaiIgOiAxMjc1MywKCQkJImsiIDogMTI3NTIsCgkJCSJyZWZlcmVuY2VfdmFsdWUiIDogMS42NDU3NjQyNTc4MDY1MDE1CgkJfSwKCQl7CgkJCSJmb3JjZV9jb25zdGFudCIgOiA2MC4wLAoJCQkiaSIgOiAxOTYxMCwKCQkJImoiIDogMTI4OTksCgkJCSJrIiA6IDEyODk4LAoJCQkicmVmZXJlbmNlX3ZhbHVlIiA6IDEuODg2MzI2MDc4MTkwODQ0MgoJCX0sCgkJewoJCQkiZm9yY2VfY29uc3RhbnQiIDogNjAuMCwKCQkJImkiIDogMTk2MDYsCgkJCSJqIiA6IDEzODMwLAoJCQkiayIgOiAxMzgyOSwKCQkJInJlZmVyZW5jZV92YWx1ZSIgOiAxLjM2OTI3NTMwMjA4OTU0MTQKCQl9LAoJCXsKCQkJImZvcmNlX2NvbnN0YW50IiA6IDAuMCwKCQkJImkiIDogMTk2MDYsCgkJCSJqIiA6IDEzODMwLAoJCQkiayIgOiAxMzgzNSwKCQkJInJlZmVyZW5jZV92YWx1ZSIgOiAxLjEyMjU4Nzg4NjY3NjcyNTYKCQl9LAoJCXsKCQkJImZvcmNlX2NvbnN0YW50IiA6IDYwLjAsCgkJCSJpIiA6IDE5NjA2LAoJCQkiaiIgOiAxMzgzMCwKCQkJImsiIDogMTk2MDgsCgkJCSJyZWZlcmVuY2VfdmFsdWUiIDogMS45NzU5MzA3NTIxNzU1MTEyCgkJfSwKCQl7CgkJCSJmb3JjZV9jb25zdGFudCIgOiA2MC4wLAoJCQkiaSIgOiAxOTYwOCwKCQkJImoiIDogMTM4MzAsCgkJCSJrIiA6IDEzODI5LAoJCQkicmVmZXJlbmNlX3ZhbHVlIiA6IDIuMjY3NDY5MjMyMzA3NTU5MQoJCX0sCgkJewoJCQkiZm9yY2VfY29uc3RhbnQiIDogMC4wLAoJCQkiaSIgOiAxOTYwOCwKCQkJImoiIDogMTM4MzAsCgkJCSJrIiA6IDEzODM1LAoJCQkicmVmZXJlbmNlX3ZhbHVlIiA6IDEuMDAxNDAyNTU0MDYxNDA3MwoJCX0sCgkJewoJCQkiZm9yY2VfY29uc3RhbnQiIDogNjAuMCwKCQkJImkiIDogMTk2MDYsCgkJCSJqIiA6IDEzODYyLAoJCQkiayIgOiAxMzg2MCwKCQkJInJlZmVyZW5jZV92YWx1ZSIgOiAyLjM5NTE0MTc5MTcyNTg2OTUKCQl9LAoJCXsKCQkJImZvcmNlX2NvbnN0YW50IiA6IDYwLjAsCgkJCSJpIiA6IDE5NjA2LAoJCQkiaiIgOiAxMzg2MiwKCQkJImsiIDogMTM4NjEsCgkJCSJyZWZlcmVuY2VfdmFsdWUiIDogMC43NTc2MzU2MjI2ODM0MjU4OAoJCX0sCgkJewoJCQkiZm9yY2VfY29uc3RhbnQiIDogMC4wLAoJCQkiaSIgOiAxOTYwNiwKCQkJImoiIDogMTM4NjIsCgkJCSJrIiA6IDEzODY5LAoJCQkicmVmZXJlbmNlX3ZhbHVlIiA6IDEuNjQxNjYyNDcyNTE1NTQ2MgoJCX0sCgkJewoJCQkiZm9yY2VfY29uc3RhbnQiIDogNjAuMCwKCQkJImkiIDogMTk2MDYsCgkJCSJqIiA6IDEzOTA4LAoJCQkiayIgOiAxMzkwNywKCQkJInJlZmVyZW5jZV92YWx1ZSIgOiAyLjAxNzc2NzA3MzY1MzIyMDUKCQl9LAoJCXsKCQkJImZvcmNlX2NvbnN0YW50IiA6IDAuMCwKCQkJImkiIDogMTk2MDYsCgkJCSJqIiA6IDEzOTA4LAoJCQkiayIgOiAxMzkxMywKCQkJInJlZmVyZW5jZV92YWx1ZSIgOiAxLjM0MDc4NTc1ODQ2NDg4MDEKCQl9LAoJCXsKCQkJImZvcmNlX2NvbnN0YW50IiA6IDYwLjAsCgkJCSJpIiA6IDE5NjA2LAoJCQkiaiIgOiAxMzkwOCwKCQkJImsiIDogMTk2MDcsCgkJCSJyZWZlcmVuY2VfdmFsdWUiIDogMi4xNjEwNjQ4MDkwOTEzMDgzCgkJfSwKCQl7CgkJCSJmb3JjZV9jb25zdGFudCIgOiA2MC4wLAoJCQkiaSIgOiAxOTYwNywKCQkJImoiIDogMTM5MDgsCgkJCSJrIiA6IDEzOTA3LAoJCQkicmVmZXJlbmNlX3ZhbHVlIiA6IDEuNzIyMjY4ODQwODQwNTAxMQoJCX0sCgkJewoJCQkiZm9yY2VfY29uc3RhbnQiIDogMC4wLAoJCQkiaSIgOiAxOTYwNywKCQkJImoiIDogMTM5MDgsCgkJCSJrIiA6IDEzOTEzLAoJCQkicmVmZXJlbmNlX3ZhbHVlIiA6IDEuMDAwNTEwNzQ2NTYyNDI0MwoJCX0sCgkJewoJCQkiZm9yY2VfY29uc3RhbnQiIDogNjAuMCwKCQkJImkiIDogMTk2MDYsCgkJCSJqIiA6IDEzOTc0LAoJCQkiayIgOiAxMzk3MywKCQkJInJlZmVyZW5jZV92YWx1ZSIgOiAxLjgzNjc0OTY4NzA3MjIwMjkKCQl9LAoJCXsKCQkJImZvcmNlX2NvbnN0YW50IiA6IDYwLjAsCgkJCSJpIiA6IDE5NjA4LAoJCQkiaiIgOiAxMzk5OCwKCQkJImsiIDogMTM5OTcsCgkJCSJyZWZlcmVuY2VfdmFsdWUiIDogMS43OTU5NjMwNjI1NTM1NTMKCQl9LAoJCXsKCQkJImZvcmNlX2NvbnN0YW50IiA6IDYwLjAsCgkJCSJpIiA6IDE5NjA3LAoJCQkiaiIgOiAxNDEyNiwKCQkJImsiIDogMTQxMjUsCgkJCSJyZWZlcmVuY2VfdmFsdWUiIDogMS44MzYzNzA5MzAxMDkxNzQyCgkJfSwKCQl7CgkJCSJmb3JjZV9jb25zdGFudCIgOiAwLjAsCgkJCSJpIiA6IDE5NjA3LAoJCQkiaiIgOiAxNDEyNiwKCQkJImsiIDogMTQxMzEsCgkJCSJyZWZlcmVuY2VfdmFsdWUiIDogMC45NDY2ODEyODE5NzM0NTg0NwoJCX0sCgkJewoJCQkiZm9yY2VfY29uc3RhbnQiIDogNjAuMCwKCQkJImkiIDogMTk2MDcsCgkJCSJqIiA6IDE0MTI2LAoJCQkiayIgOiAxOTYwOCwKCQkJInJlZmVyZW5jZV92YWx1ZSIgOiAyLjA3MDk1OTM0MDM5MTg2NTYKCQl9LAoJCXsKCQkJImZvcmNlX2NvbnN0YW50IiA6IDYwLjAsCgkJCSJpIiA6IDE5NjA4LAoJCQkiaiIgOiAxNDEyNiwKCQkJImsiIDogMTQxMjUsCgkJCSJyZWZlcmVuY2VfdmFsdWUiIDogMS41MjAyNjgwODAwOTEyMDk0CgkJfSwKCQl7CgkJCSJmb3JjZV9jb25zdGFudCIgOiAwLjAsCgkJCSJpIiA6IDE5NjA4LAoJCQkiaiIgOiAxNDEyNiwKCQkJImsiIDogMTQxMzEsCgkJCSJyZWZlcmVuY2VfdmFsdWUiIDogMS4xNDI2ODMzMTYzMDc3MTM5CgkJfSwKCQl7CgkJCSJmb3JjZV9jb25zdGFudCIgOiA2MC4wLAoJCQkiaSIgOiAxOTYwOCwKCQkJImoiIDogMTQxOTYsCgkJCSJrIiA6IDE0MTk1LAoJCQkicmVmZXJlbmNlX3ZhbHVlIiA6IDEuODIzNTU3NjQ0NDQ0Mzc5NwoJCX0sCgkJewoJCQkiZm9yY2VfY29uc3RhbnQiIDogNjAuMCwKCQkJImkiIDogMTk2MDcsCgkJCSJqIiA6IDE0MjI1LAoJCQkiayIgOiAxNDIyNCwKCQkJInJlZmVyZW5jZV92YWx1ZSIgOiAxLjg2ODQ1NTM4ODc2NTM3OTIKCQl9LAoJCXsKCQkJImZvcmNlX2NvbnN0YW50IiA6IDYwLjAsCgkJCSJpIiA6IDE5NjA3LAoJCQkiaiIgOiAxNDI4OSwKCQkJImsiIDogMTQyODgsCgkJCSJyZWZlcmVuY2VfdmFsdWUiIDogMS43NDIzMjEzMTU0MDk2Njg2CgkJfSwKCQl7CgkJCSJmb3JjZV9jb25zdGFudCIgOiA2MC4wLAoJCQkiaSIgOiAxOTYwMywKCQkJImoiIDogMTQzOTUsCgkJCSJrIiA6IDE0Mzk0LAoJCQkicmVmZXJlbmNlX3ZhbHVlIiA6IDEuNjE3ODMxMjA3MzA2NjQzNgoJCX0sCgkJewoJCQkiZm9yY2VfY29uc3RhbnQiIDogMC4wLAoJCQkiaSIgOiAxOTYwMywKCQkJImoiIDogMTQzOTUsCgkJCSJrIiA6IDE0NDAwLAoJCQkicmVmZXJlbmNlX3ZhbHVlIiA6IDAuOTk3MTA5NDQ1NDM2ODI3NjcKCQl9LAoJCXsKCQkJImZvcmNlX2NvbnN0YW50IiA6IDYwLjAsCgkJCSJpIiA6IDE5NjAzLAoJCQkiaiIgOiAxNDM5NSwKCQkJImsiIDogMTk2MDUsCgkJCSJyZWZlcmVuY2VfdmFsdWUiIDogMi4wMjk0MDM5NjkwNTI2MTk4CgkJfSwKCQl7CgkJCSJmb3JjZV9jb25zdGFudCIgOiA2MC4wLAoJCQkiaSIgOiAxOTYwNSwKCQkJImoiIDogMTQzOTUsCgkJCSJrIiA6IDE0Mzk0LAoJCQkicmVmZXJlbmNlX3ZhbHVlIiA6IDEuNzA5NTM5NTIwMTI2MTAxMgoJCX0sCgkJewoJCQkiZm9yY2VfY29uc3RhbnQiIDogMC4wLAoJCQkiaSIgOiAxOTYwNSwKCQkJImoiIDogMTQzOTUsCgkJCSJrIiA6IDE0NDAwLAoJCQkicmVmZXJlbmNlX3ZhbHVlIiA6IDEuMDM5MDU0NTk3OTQwMDc2NwoJCX0sCgkJewoJCQkiZm9yY2VfY29uc3RhbnQiIDogNjAuMCwKCQkJImkiIDogMTk2MDUsCgkJCSJqIiA6IDE0NDE2LAoJCQkiayIgOiAxNDQxNSwKCQkJInJlZmVyZW5jZV92YWx1ZSIgOiAxLjk2NzUxODEzMTU4ODA0MzcKCQl9LAoJCXsKCQkJImZvcmNlX2NvbnN0YW50IiA6IDYwLjAsCgkJCSJpIiA6IDE5NjA0LAoJCQkiaiIgOiAxNDUwOCwKCQkJImsiIDogMTQ1MDcsCgkJCSJyZWZlcmVuY2VfdmFsdWUiIDogMS43NjMzNjQ2NDMwNjE4NDc1CgkJfSwKCQl7CgkJCSJmb3JjZV9jb25zdGFudCIgOiAwLjAsCgkJCSJpIiA6IDE5NjA0LAoJCQkiaiIgOiAxNDUwOCwKCQkJImsiIDogMTQ1MTMsCgkJCSJyZWZlcmVuY2VfdmFsdWUiIDogMS4xNTMwODcxNTU4NzY4NDA3CgkJfSwKCQl7CgkJCSJmb3JjZV9jb25zdGFudCIgOiA2MC4wLAoJCQkiaSIgOiAxOTYwNCwKCQkJImoiIDogMTQ1MDgsCgkJCSJrIiA6IDE5NjA1LAoJCQkicmVmZXJlbmNlX3ZhbHVlIiA6IDIuMDg2OTA1NzExNTY1NDU1MgoJCX0sCgkJewoJCQkiZm9yY2VfY29uc3RhbnQiIDogNjAuMCwKCQkJImkiIDogMTk2MDUsCgkJCSJqIiA6IDE0NTA4LAoJCQkiayIgOiAxNDUwNywKCQkJInJlZmVyZW5jZV92YWx1ZSIgOiAxLjg3ODk5NTIxMDI2NTM3NDIKCQl9LAoJCXsKCQkJImZvcmNlX2NvbnN0YW50IiA6IDAuMCwKCQkJImkiIDogMTk2MDUsCgkJCSJqIiA6IDE0NTA4LAoJCQkiayIgOiAxNDUxMywKCQkJInJlZmVyZW5jZV92YWx1ZSIgOiAxLjA1MjcyODUzODM0Mjc2ODUKCQl9LAoJCXsKCQkJImZvcmNlX2NvbnN0YW50IiA6IDYwLjAsCgkJCSJpIiA6IDE5NjA1LAoJCQkiaiIgOiAxNDY0MywKCQkJImsiIDogMTQ2NDIsCgkJCSJyZWZlcmVuY2VfdmFsdWUiIDogMS44NzAzMTk3NTEyMTAxNTU3CgkJfSwKCQl7CgkJCSJmb3JjZV9jb25zdGFudCIgOiA2MC4wLAoJCQkiaSIgOiAxOTYwMywKCQkJImoiIDogMTQ2NzIsCgkJCSJrIiA6IDE0NjcxLAoJCQkicmVmZXJlbmNlX3ZhbHVlIiA6IDIuMDA3MzU2ODc3MDIxMzYzNwoJCX0sCgkJewoJCQkiZm9yY2VfY29uc3RhbnQiIDogNjAuMCwKCQkJImkiIDogMTk2MDMsCgkJCSJqIiA6IDE0Nzg3LAoJCQkiayIgOiAxNDc4NiwKCQkJInJlZmVyZW5jZV92YWx1ZSIgOiAxLjY5NDQ2NjM2NTM2NzU5MjQKCQl9LAoJCXsKCQkJImZvcmNlX2NvbnN0YW50IiA6IDAuMCwKCQkJImkiIDogMTk2MDMsCgkJCSJqIiA6IDE0Nzg3LAoJCQkiayIgOiAxNDc5MiwKCQkJInJlZmVyZW5jZV92YWx1ZSIgOiAxLjEwODE3NzE0NDEzNzAwNjcKCQl9LAoJCXsKCQkJImZvcmNlX2NvbnN0YW50IiA6IDYwLjAsCgkJCSJpIiA6IDE5NjAzLAoJCQkiaiIgOiAxNDc4NywKCQkJImsiIDogMTk2MDQsCgkJCSJyZWZlcmVuY2VfdmFsdWUiIDogMi4wODQ4OTcyMzk1NTg1MzA2CgkJfSwKCQl7CgkJCSJmb3JjZV9jb25zdGFudCIgOiA2MC4wLAoJCQkiaSIgOiAxOTYwNCwKCQkJImoiIDogMTQ3ODcsCgkJCSJrIiA6IDE0Nzg2LAoJCQkicmVmZXJlbmNlX3ZhbHVlIiA6IDEuNzQ1NzgzODA3MjMyOTY3CgkJfSwKCQl7CgkJCSJmb3JjZV9jb25zdGFudCIgOiAwLjAsCgkJCSJpIiA6IDE5NjA0LAoJCQkiaiIgOiAxNDc4NywKCQkJImsiIDogMTQ3OTIsCgkJCSJyZWZlcmVuY2VfdmFsdWUiIDogMS4wMDg3OTY1MzE0MTA0Nzc2CgkJfSwKCQl7CgkJCSJmb3JjZV9jb25zdGFudCIgOiA2MC4wLAoJCQkiaSIgOiAxOTYwMywKCQkJImoiIDogMTQ4NTcsCgkJCSJrIiA6IDE0ODU2LAoJCQkicmVmZXJlbmNlX3ZhbHVlIiA6IDEuNzAwMjQ2MzAzODY2NzE0OAoJCX0sCgkJewoJCQkiZm9yY2VfY29uc3RhbnQiIDogNjAuMCwKCQkJImkiIDogMTk2MDQsCgkJCSJqIiA6IDE0ODk2LAoJCQkiayIgOiAxNDg5NSwKCQkJInJlZmVyZW5jZV92YWx1ZSIgOiAxLjYzNTg2MzMxNTQxMDg4NTcKCQl9LAoJCXsKCQkJImZvcmNlX2NvbnN0YW50IiA6IDYwLjAsCgkJCSJpIiA6IDE0Mzk1LAoJCQkiaiIgOiAxOTYwMywKCQkJImsiIDogMTQ2NzIsCgkJCSJyZWZlcmVuY2VfdmFsdWUiIDogMS45OTM0ODAxNDI5MDkzODk2CgkJfSwKCQl7CgkJCSJmb3JjZV9jb25zdGFudCIgOiA2MC4wLAoJCQkiaSIgOiAxNDM5NSwKCQkJImoiIDogMTk2MDMsCgkJCSJrIiA6IDE0Nzg3LAoJCQkicmVmZXJlbmNlX3ZhbHVlIiA6IDEuNjkxODYwOTAwNDc2MTU5MQoJCX0sCgkJewoJCQkiZm9yY2VfY29uc3RhbnQiIDogNjAuMCwKCQkJImkiIDogMTQzOTUsCgkJCSJqIiA6IDE5NjAzLAoJCQkiayIgOiAxNDg1NywKCQkJInJlZmVyZW5jZV92YWx1ZSIgOiAyLjA1MzQ2OTY0MTMyMDc0MjEKCQl9LAoJCXsKCQkJImZvcmNlX2NvbnN0YW50IiA6IDYwLjAsCgkJCSJpIiA6IDE0NjcyLAoJCQkiaiIgOiAxOTYwMywKCQkJImsiIDogMTQ3ODcsCgkJCSJyZWZlcmVuY2VfdmFsdWUiIDogMS44NTkwODUwODI2MTU0NzU3CgkJfSwKCQl7CgkJCSJmb3JjZV9jb25zdGFudCIgOiA2MC4wLAoJCQkiaSIgOiAxNDY3MiwKCQkJImoiIDogMTk2MDMsCgkJCSJrIiA6IDE0ODU3LAoJCQkicmVmZXJlbmNlX3ZhbHVlIiA6IDEuODE1NjQ5NTU3Mzc2Mjc3MgoJCX0sCgkJewoJCQkiZm9yY2VfY29uc3RhbnQiIDogNjAuMCwKCQkJImkiIDogMTQ3ODcsCgkJCSJqIiA6IDE5NjAzLAoJCQkiayIgOiAxNDg1NywKCQkJInJlZmVyZW5jZV92YWx1ZSIgOiAyLjA0OTEzODE4NjA2NTc4MTYKCQl9LAoJCXsKCQkJImZvcmNlX2NvbnN0YW50IiA6IDYwLjAsCgkJCSJpIiA6IDE0NTA4LAoJCQkiaiIgOiAxOTYwNCwKCQkJImsiIDogMTQ3ODcsCgkJCSJyZWZlcmVuY2VfdmFsdWUiIDogMS43NDA0OTE5NzEyNjcxODE0CgkJfSwKCQl7CgkJCSJmb3JjZV9jb25zdGFudCIgOiA2MC4wLAoJCQkiaSIgOiAxNDUwOCwKCQkJImoiIDogMTk2MDQsCgkJCSJrIiA6IDE0ODk2LAoJCQkicmVmZXJlbmNlX3ZhbHVlIiA6IDEuNzk3NDMyMTUyOTcwMzA1OQoJCX0sCgkJewoJCQkiZm9yY2VfY29uc3RhbnQiIDogNjAuMCwKCQkJImkiIDogMTQ3ODcsCgkJCSJqIiA6IDE5NjA0LAoJCQkiayIgOiAxNDg5NiwKCQkJInJlZmVyZW5jZV92YWx1ZSIgOiAxLjg4MDA5MDcxNjcyNDMzODEKCQl9LAoJCXsKCQkJImZvcmNlX2NvbnN0YW50IiA6IDYwLjAsCgkJCSJpIiA6IDE0Mzk1LAoJCQkiaiIgOiAxOTYwNSwKCQkJImsiIDogMTQ0MTYsCgkJCSJyZWZlcmVuY2VfdmFsdWUiIDogMS44ODcxODk3ODgyMDM0MzUyCgkJfSwKCQl7CgkJCSJmb3JjZV9jb25zdGFudCIgOiA2MC4wLAoJCQkiaSIgOiAxNDM5NSwKCQkJImoiIDogMTk2MDUsCgkJCSJrIiA6IDE0NTA4LAoJCQkicmVmZXJlbmNlX3ZhbHVlIiA6IDEuNzQxNTA0OTI5NDY2NzY4OAoJCX0sCgkJewoJCQkiZm9yY2VfY29uc3RhbnQiIDogNjAuMCwKCQkJImkiIDogMTQzOTUsCgkJCSJqIiA6IDE5NjA1LAoJCQkiayIgOiAxNDY0MywKCQkJInJlZmVyZW5jZV92YWx1ZSIgOiAyLjAyMTA5MDA3NzA2NjE3ODQKCQl9LAoJCXsKCQkJImZvcmNlX2NvbnN0YW50IiA6IDYwLjAsCgkJCSJpIiA6IDE0NDE2LAoJCQkiaiIgOiAxOTYwNSwKCQkJImsiIDogMTQ1MDgsCgkJCSJyZWZlcmVuY2VfdmFsdWUiIDogMS44NTUwMDc5MTUxNTEwMjM3CgkJfSwKCQl7CgkJCSJmb3JjZV9jb25zdGFudCIgOiA2MC4wLAoJCQkiaSIgOiAxNDQxNiwKCQkJImoiIDogMTk2MDUsCgkJCSJrIiA6IDE0NjQzLAoJCQkicmVmZXJlbmNlX3ZhbHVlIiA6IDEuOTk5MzIxMDMwNjcxNzE1NwoJCX0sCgkJewoJCQkiZm9yY2VfY29uc3RhbnQiIDogNjAuMCwKCQkJImkiIDogMTQ1MDgsCgkJCSJqIiA6IDE5NjA1LAoJCQkiayIgOiAxNDY0MywKCQkJInJlZmVyZW5jZV92YWx1ZSIgOiAxLjkzNjAzMjY4ODA2MDM2ODIKCQl9LAoJCXsKCQkJImZvcmNlX2NvbnN0YW50IiA6IDYwLjAsCgkJCSJpIiA6IDEzODMwLAoJCQkiaiIgOiAxOTYwNiwKCQkJImsiIDogMTM4NjIsCgkJCSJyZWZlcmVuY2VfdmFsdWUiIDogMi4yODQ5MzA0MDE1ODAyNTU4CgkJfSwKCQl7CgkJCSJmb3JjZV9jb25zdGFudCIgOiA2MC4wLAoJCQkiaSIgOiAxMzgzMCwKCQkJImoiIDogMTk2MDYsCgkJCSJrIiA6IDEzOTA4LAoJCQkicmVmZXJlbmNlX3ZhbHVlIiA6IDEuODI5NDM5MzIwODcyNDIzMwoJCX0sCgkJewoJCQkiZm9yY2VfY29uc3RhbnQiIDogNjAuMCwKCQkJImkiIDogMTM4MzAsCgkJCSJqIiA6IDE5NjA2LAoJCQkiayIgOiAxMzk3NCwKCQkJInJlZmVyZW5jZV92YWx1ZSIgOiAxLjkwMjI1NTE2NjA1NzU4NjQKCQl9LAoJCXsKCQkJImZvcmNlX2NvbnN0YW50IiA6IDYwLjAsCgkJCSJpIiA6IDEzODYyLAoJCQkiaiIgOiAxOTYwNiwKCQkJImsiIDogMTM5MDgsCgkJCSJyZWZlcmVuY2VfdmFsdWUiIDogMS40MzY3OTExMTczNTg1MDM3CgkJfSwKCQl7CgkJCSJmb3JjZV9jb25zdGFudCIgOiA2MC4wLAoJCQkiaSIgOiAxMzg2MiwKCQkJImoiIDogMTk2MDYsCgkJCSJrIiA6IDEzOTc0LAoJCQkicmVmZXJlbmNlX3ZhbHVlIiA6IDIuMDQ1NTk4NDM4MjUzNTQwNgoJCX0sCgkJewoJCQkiZm9yY2VfY29uc3RhbnQiIDogNjAuMCwKCQkJImkiIDogMTM5MDgsCgkJCSJqIiA6IDE5NjA2LAoJCQkiayIgOiAxMzk3NCwKCQkJInJlZmVyZW5jZV92YWx1ZSIgOiAxLjc2NTI0MTY5OTkzMjg3NzkKCQl9LAoJCXsKCQkJImZvcmNlX2NvbnN0YW50IiA6IDYwLjAsCgkJCSJpIiA6IDEzOTA4LAoJCQkiaiIgOiAxOTYwNywKCQkJImsiIDogMTQxMjYsCgkJCSJyZWZlcmVuY2VfdmFsdWUiIDogMS42OTYzMjgyMTQ2MDY4Mjc1CgkJfSwKCQl7CgkJCSJmb3JjZV9jb25zdGFudCIgOiA2MC4wLAoJCQkiaSIgOiAxMzkwOCwKCQkJImoiIDogMTk2MDcsCgkJCSJrIiA6IDE0MjI1LAoJCQkicmVmZXJlbmNlX3ZhbHVlIiA6IDEuODc5MjU0NTIzMjM2MTI0OQoJCX0sCgkJewoJCQkiZm9yY2VfY29uc3RhbnQiIDogNjAuMCwKCQkJImkiIDogMTM5MDgsCgkJCSJqIiA6IDE5NjA3LAoJCQkiayIgOiAxNDI4OSwKCQkJInJlZmVyZW5jZV92YWx1ZSIgOiAxLjg2NTY5ODE5NzEyODE3NjcKCQl9LAoJCXsKCQkJImZvcmNlX2NvbnN0YW50IiA6IDYwLjAsCgkJCSJpIiA6IDE0MTI2LAoJCQkiaiIgOiAxOTYwNywKCQkJImsiIDogMTQyMjUsCgkJCSJyZWZlcmVuY2VfdmFsdWUiIDogMS43NDk2NjAxNDI4NDY5ODA1CgkJfSwKCQl7CgkJCSJmb3JjZV9jb25zdGFudCIgOiA2MC4wLAoJCQkiaSIgOiAxNDEyNiwKCQkJImoiIDogMTk2MDcsCgkJCSJrIiA6IDE0Mjg5LAoJCQkicmVmZXJlbmNlX3ZhbHVlIiA6IDEuOTY2NTkzMzI0NTk1MTU1NQoJCX0sCgkJewoJCQkiZm9yY2VfY29uc3RhbnQiIDogNjAuMCwKCQkJImkiIDogMTQyMjUsCgkJCSJqIiA6IDE5NjA3LAoJCQkiayIgOiAxNDI4OSwKCQkJInJlZmVyZW5jZV92YWx1ZSIgOiAyLjIzMjI3OTg2MzAyODQ5NjMKCQl9LAoJCXsKCQkJImZvcmNlX2NvbnN0YW50IiA6IDYwLjAsCgkJCSJpIiA6IDEzODMwLAoJCQkiaiIgOiAxOTYwOCwKCQkJImsiIDogMTM5OTgsCgkJCSJyZWZlcmVuY2VfdmFsdWUiIDogMS45MDUwODU3NTU3NjczMDIyCgkJfSwKCQl7CgkJCSJmb3JjZV9jb25zdGFudCIgOiA2MC4wLAoJCQkiaSIgOiAxMzgzMCwKCQkJImoiIDogMTk2MDgsCgkJCSJrIiA6IDE0MTI2LAoJCQkicmVmZXJlbmNlX3ZhbHVlIiA6IDEuOTA3OTM0OTUyMDM3OTgwNwoJCX0sCgkJewoJCQkiZm9yY2VfY29uc3RhbnQiIDogNjAuMCwKCQkJImkiIDogMTM4MzAsCgkJCSJqIiA6IDE5NjA4LAoJCQkiayIgOiAxNDE5NiwKCQkJInJlZmVyZW5jZV92YWx1ZSIgOiAxLjYyMjc0ODcxNDE5NTUzMTUKCQl9LAoJCXsKCQkJImZvcmNlX2NvbnN0YW50IiA6IDYwLjAsCgkJCSJpIiA6IDEzOTk4LAoJCQkiaiIgOiAxOTYwOCwKCQkJImsiIDogMTQxMjYsCgkJCSJyZWZlcmVuY2VfdmFsdWUiIDogMi4wMTc1NzgwODgwMTY5OTE4CgkJfSwKCQl7CgkJCSJmb3JjZV9jb25zdGFudCIgOiA2MC4wLAoJCQkiaSIgOiAxMzk5OCwKCQkJImoiIDogMTk2MDgsCgkJCSJrIiA6IDE0MTk2LAoJCQkicmVmZXJlbmNlX3ZhbHVlIiA6IDEuNzgwNjMxODI5MjA1ODIzOQoJCX0sCgkJewoJCQkiZm9yY2VfY29uc3RhbnQiIDogNjAuMCwKCQkJImkiIDogMTQxMjYsCgkJCSJqIiA6IDE5NjA4LAoJCQkiayIgOiAxNDE5NiwKCQkJInJlZmVyZW5jZV92YWx1ZSIgOiAyLjE4MjE3MDI1MTc0ODY4NTIKCQl9LAoJCXsKCQkJImZvcmNlX2NvbnN0YW50IiA6IDYwLjAsCgkJCSJpIiA6IDExMzQwLAoJCQkiaiIgOiAxOTYwOSwKCQkJImsiIDogMTEzODgsCgkJCSJyZWZlcmVuY2VfdmFsdWUiIDogMi4wMDk3MzAxOTMxNTg5ODgyCgkJfSwKCQl7CgkJCSJmb3JjZV9jb25zdGFudCIgOiA2MC4wLAoJCQkiaSIgOiAxMTM0MCwKCQkJImoiIDogMTk2MDksCgkJCSJrIiA6IDExNDU4LAoJCQkicmVmZXJlbmNlX3ZhbHVlIiA6IDEuNzczNjYwMzQ1NDE0Mzc0NwoJCX0sCgkJewoJCQkiZm9yY2VfY29uc3RhbnQiIDogNjAuMCwKCQkJImkiIDogMTEzNDAsCgkJCSJqIiA6IDE5NjA5LAoJCQkiayIgOiAxMTQ4NCwKCQkJInJlZmVyZW5jZV92YWx1ZSIgOiAxLjg5NjAxMjA1MDg0MjU1MzgKCQl9LAoJCXsKCQkJImZvcmNlX2NvbnN0YW50IiA6IDYwLjAsCgkJCSJpIiA6IDExMzg4LAoJCQkiaiIgOiAxOTYwOSwKCQkJImsiIDogMTE0NTgsCgkJCSJyZWZlcmVuY2VfdmFsdWUiIDogMS45NDMyNzE5NjI0MDQ1MDY3CgkJfSwKCQl7CgkJCSJmb3JjZV9jb25zdGFudCIgOiA2MC4wLAoJCQkiaSIgOiAxMTM4OCwKCQkJImoiIDogMTk2MDksCgkJCSJrIiA6IDExNDg0LAoJCQkicmVmZXJlbmNlX3ZhbHVlIiA6IDEuOTc5NTU1NTg0NDIyMjI3CgkJfSwKCQl7CgkJCSJmb3JjZV9jb25zdGFudCIgOiA2MC4wLAoJCQkiaSIgOiAxMTQ1OCwKCQkJImoiIDogMTk2MDksCgkJCSJrIiA6IDExNDg0LAoJCQkicmVmZXJlbmNlX3ZhbHVlIiA6IDEuODQzODYwMDYwNjYzMzM4NAoJCX0sCgkJewoJCQkiZm9yY2VfY29uc3RhbnQiIDogNjAuMCwKCQkJImkiIDogMTIxMDIsCgkJCSJqIiA6IDE5NjEwLAoJCQkiayIgOiAxMjE2NSwKCQkJInJlZmVyZW5jZV92YWx1ZSIgOiAxLjc1NzA1MzI5NjA5MzY3NTMKCQl9LAoJCXsKCQkJImZvcmNlX2NvbnN0YW50IiA6IDYwLjAsCgkJCSJpIiA6IDEyMTAyLAoJCQkiaiIgOiAxOTYxMCwKCQkJImsiIDogMTI3NTMsCgkJCSJyZWZlcmVuY2VfdmFsdWUiIDogMi4yODc2NDQzODU5OTQ4OTIzCgkJfSwKCQl7CgkJCSJmb3JjZV9jb25zdGFudCIgOiA2MC4wLAoJCQkiaSIgOiAxMjEwMiwKCQkJImoiIDogMTk2MTAsCgkJCSJrIiA6IDEyODk5LAoJCQkicmVmZXJlbmNlX3ZhbHVlIiA6IDEuODE3NTg3NDQ3NTY1NTQyNQoJCX0sCgkJewoJCQkiZm9yY2VfY29uc3RhbnQiIDogNjAuMCwKCQkJImkiIDogMTIxNjUsCgkJCSJqIiA6IDE5NjEwLAoJCQkiayIgOiAxMjc1MywKCQkJInJlZmVyZW5jZV92YWx1ZSIgOiAxLjk0MDMzMDc4NjMzODUyMDQKCQl9LAoJCXsKCQkJImZvcmNlX2NvbnN0YW50IiA6IDYwLjAsCgkJCSJpIiA6IDEyMTY1LAoJCQkiaiIgOiAxOTYxMCwKCQkJImsiIDogMTI4OTksCgkJCSJyZWZlcmVuY2VfdmFsdWUiIDogMS45NjAyNTQ3Nzc5NzUwODk2CgkJfSwKCQl7CgkJCSJmb3JjZV9jb25zdGFudCIgOiA2MC4wLAoJCQkiaSIgOiAxMjc1MywKCQkJImoiIDogMTk2MTAsCgkJCSJrIiA6IDEyODk5LAoJCQkicmVmZXJlbmNlX3ZhbHVlIiA6IDEuNjk0NDEyNTIxMjU3NzE2NgoJCX0KCV0sCgkiYm9uZCIgOiAKCVsKCQl7CgkJCSJmb3JjZV9jb25zdGFudCIgOiAzMDAuMCwKCQkJImkiIDogMTEzNDAsCgkJCSJqIiA6IDE5NjA5LAoJCQkicmVmZXJlbmNlX3ZhbHVlIiA6IDIuMjY5NTA5NDk2MTIyMjM1NQoJCX0sCgkJewoJCQkiZm9yY2VfY29uc3RhbnQiIDogMzAwLjAsCgkJCSJpIiA6IDExMzg4LAoJCQkiaiIgOiAxOTYwOSwKCQkJInJlZmVyZW5jZV92YWx1ZSIgOiAyLjM3MTYzMTE2NzE4MjgzMTgKCQl9LAoJCXsKCQkJImZvcmNlX2NvbnN0YW50IiA6IDMwMC4wLAoJCQkiaSIgOiAxMTQ1OCwKCQkJImoiIDogMTk2MDksCgkJCSJyZWZlcmVuY2VfdmFsdWUiIDogMi4yMDkxODc2NDA1MjA2MDU1CgkJfSwKCQl7CgkJCSJmb3JjZV9jb25zdGFudCIgOiAzMDAuMCwKCQkJImkiIDogMTE0ODQsCgkJCSJqIiA6IDE5NjA5LAoJCQkicmVmZXJlbmNlX3ZhbHVlIiA6IDEuOTk4NTgyNjAzODkzMzE3NwoJCX0sCgkJewoJCQkiZm9yY2VfY29uc3RhbnQiIDogMzAwLjAsCgkJCSJpIiA6IDEyMTAyLAoJCQkiaiIgOiAxOTYxMCwKCQkJInJlZmVyZW5jZV92YWx1ZSIgOiAyLjE0NzIzNjcxNjU5MDQyMDMKCQl9LAoJCXsKCQkJImZvcmNlX2NvbnN0YW50IiA6IDMwMC4wLAoJCQkiaSIgOiAxMjE2NSwKCQkJImoiIDogMTk2MTAsCgkJCSJyZWZlcmVuY2VfdmFsdWUiIDogMi41NzQ5MTE2NjYxOTc2ODc5CgkJfSwKCQl7CgkJCSJmb3JjZV9jb25zdGFudCIgOiAzMDAuMCwKCQkJImkiIDogMTI3NTMsCgkJCSJqIiA6IDE5NjEwLAoJCQkicmVmZXJlbmNlX3ZhbHVlIiA6IDIuNTEyNjMwNTk3NzQ3NzA4NAoJCX0sCgkJewoJCQkiZm9yY2VfY29uc3RhbnQiIDogMzAwLjAsCgkJCSJpIiA6IDEyODk5LAoJCQkiaiIgOiAxOTYxMCwKCQkJInJlZmVyZW5jZV92YWx1ZSIgOiAyLjQ0ODc1NzUzNzQ5NzMzMDcKCQl9LAoJCXsKCQkJImZvcmNlX2NvbnN0YW50IiA6IDMwMC4wLAoJCQkiaSIgOiAxMzgzMCwKCQkJImoiIDogMTk2MDYsCgkJCSJyZWZlcmVuY2VfdmFsdWUiIDogMi40MzAzODI1NTE0MzU2NzUyCgkJfSwKCQl7CgkJCSJmb3JjZV9jb25zdGFudCIgOiAzMDAuMCwKCQkJImkiIDogMTM4MzAsCgkJCSJqIiA6IDE5NjA4LAoJCQkicmVmZXJlbmNlX3ZhbHVlIiA6IDIuMjMzODkxMTAzNDQ1NTA4OQoJCX0sCgkJewoJCQkiZm9yY2VfY29uc3RhbnQiIDogMzAwLjAsCgkJCSJpIiA6IDEzODYyLAoJCQkiaiIgOiAxOTYwNiwKCQkJInJlZmVyZW5jZV92YWx1ZSIgOiAzLjAyMTExNDI1MjMzNTg4MjMKCQl9LAoJCXsKCQkJImZvcmNlX2NvbnN0YW50IiA6IDMwMC4wLAoJCQkiaSIgOiAxMzkwOCwKCQkJImoiIDogMTk2MDYsCgkJCSJyZWZlcmVuY2VfdmFsdWUiIDogMi4xMTI0OTcyODM4ODIwNDM1CgkJfSwKCQl7CgkJCSJmb3JjZV9jb25zdGFudCIgOiAzMDAuMCwKCQkJImkiIDogMTM5MDgsCgkJCSJqIiA6IDE5NjA3LAoJCQkicmVmZXJlbmNlX3ZhbHVlIiA6IDIuNTgwODgxMzk5NzYwMzYxCgkJfSwKCQl7CgkJCSJmb3JjZV9jb25zdGFudCIgOiAzMDAuMCwKCQkJImkiIDogMTM5NzQsCgkJCSJqIiA6IDE5NjA2LAoJCQkicmVmZXJlbmNlX3ZhbHVlIiA6IDIuMzEzNzg3ODU1MjY0MzkKCQl9LAoJCXsKCQkJImZvcmNlX2NvbnN0YW50IiA6IDMwMC4wLAoJCQkiaSIgOiAxMzk5OCwKCQkJImoiIDogMTk2MDgsCgkJCSJyZWZlcmVuY2VfdmFsdWUiIDogMi4zMDY0NDcwMTA2ODc2NTQyCgkJfSwKCQl7CgkJCSJmb3JjZV9jb25zdGFudCIgOiAzMDAuMCwKCQkJImkiIDogMTQxMjYsCgkJCSJqIiA6IDE5NjA3LAoJCQkicmVmZXJlbmNlX3ZhbHVlIiA6IDIuMzQ3MzcyMzIwOTYzNTk0OAoJCX0sCgkJewoJCQkiZm9yY2VfY29uc3RhbnQiIDogMzAwLjAsCgkJCSJpIiA6IDE0MTI2LAoJCQkiaiIgOiAxOTYwOCwKCQkJInJlZmVyZW5jZV92YWx1ZSIgOiAyLjI4MDcyMTkwNjQ5NTgzNDIKCQl9LAoJCXsKCQkJImZvcmNlX2NvbnN0YW50IiA6IDMwMC4wLAoJCQkiaSIgOiAxNDE5NiwKCQkJImoiIDogMTk2MDgsCgkJCSJyZWZlcmVuY2VfdmFsdWUiIDogMi40MTI2NTUyNjc0NTI4NTI3CgkJfSwKCQl7CgkJCSJmb3JjZV9jb25zdGFudCIgOiAzMDAuMCwKCQkJImkiIDogMTQyMjUsCgkJCSJqIiA6IDE5NjA3LAoJCQkicmVmZXJlbmNlX3ZhbHVlIiA6IDIuMDgyNDAwNDA1Mzk0NDU4NwoJCX0sCgkJewoJCQkiZm9yY2VfY29uc3RhbnQiIDogMzAwLjAsCgkJCSJpIiA6IDE0Mjg5LAoJCQkiaiIgOiAxOTYwNywKCQkJInJlZmVyZW5jZV92YWx1ZSIgOiAyLjExODQ3ODk3MjA1NjEyOQoJCX0sCgkJewoJCQkiZm9yY2VfY29uc3RhbnQiIDogMzAwLjAsCgkJCSJpIiA6IDE0Mzk1LAoJCQkiaiIgOiAxOTYwMywKCQkJInJlZmVyZW5jZV92YWx1ZSIgOiAyLjUxOTQyODQwMDc3MTQ5MzMKCQl9LAoJCXsKCQkJImZvcmNlX2NvbnN0YW50IiA6IDMwMC4wLAoJCQkiaSIgOiAxNDM5NSwKCQkJImoiIDogMTk2MDUsCgkJCSJyZWZlcmVuY2VfdmFsdWUiIDogMi4yODg0ODI5ODM1MDE3MzcxCgkJfSwKCQl7CgkJCSJmb3JjZV9jb25zdGFudCIgOiAzMDAuMCwKCQkJImkiIDogMTQ0MTYsCgkJCSJqIiA6IDE5NjA1LAoJCQkicmVmZXJlbmNlX3ZhbHVlIiA6IDIuMjE1Mjg0OTM1NzIzODQzOAoJCX0sCgkJewoJCQkiZm9yY2VfY29uc3RhbnQiIDogMzAwLjAsCgkJCSJpIiA6IDE0NTA4LAoJCQkiaiIgOiAxOTYwNCwKCQkJInJlZmVyZW5jZV92YWx1ZSIgOiAyLjM4MDI3MTM2MjE5NTA3NDgKCQl9LAoJCXsKCQkJImZvcmNlX2NvbnN0YW50IiA6IDMwMC4wLAoJCQkiaSIgOiAxNDUwOCwKCQkJImoiIDogMTk2MDUsCgkJCSJyZWZlcmVuY2VfdmFsdWUiIDogMi4zNDYxODUwMDkyOTg5MjM2CgkJfSwKCQl7CgkJCSJmb3JjZV9jb25zdGFudCIgOiAzMDAuMCwKCQkJImkiIDogMTQ2NDMsCgkJCSJqIiA6IDE5NjA1LAoJCQkicmVmZXJlbmNlX3ZhbHVlIiA6IDIuMTE2ODMxNDAzODcwODkKCQl9LAoJCXsKCQkJImZvcmNlX2NvbnN0YW50IiA6IDMwMC4wLAoJCQkiaSIgOiAxNDY3MiwKCQkJImoiIDogMTk2MDMsCgkJCSJyZWZlcmVuY2VfdmFsdWUiIDogMi4yNzk0ODg0OTc4OTAwNDIzCgkJfSwKCQl7CgkJCSJmb3JjZV9jb25zdGFudCIgOiAzMDAuMCwKCQkJImkiIDogMTQ3ODcsCgkJCSJqIiA6IDE5NjAzLAoJCQkicmVmZXJlbmNlX3ZhbHVlIiA6IDIuMzAxNDA0NDE3OTg1MDMyMQoJCX0sCgkJewoJCQkiZm9yY2VfY29uc3RhbnQiIDogMzAwLjAsCgkJCSJpIiA6IDE0Nzg3LAoJCQkiaiIgOiAxOTYwNCwKCQkJInJlZmVyZW5jZV92YWx1ZSIgOiAyLjM5MzI0MjE5NDc0OTgzNDgKCQl9LAoJCXsKCQkJImZvcmNlX2NvbnN0YW50IiA6IDMwMC4wLAoJCQkiaSIgOiAxNDg1NywKCQkJImoiIDogMTk2MDMsCgkJCSJyZWZlcmVuY2VfdmFsdWUiIDogMi40MDI0NTc0NzYyMzgwMjczCgkJfSwKCQl7CgkJCSJmb3JjZV9jb25zdGFudCIgOiAzMDAuMCwKCQkJImkiIDogMTQ4OTYsCgkJCSJqIiA6IDE5NjA0LAoJCQkicmVmZXJlbmNlX3ZhbHVlIiA6IDIuMzMxOTUxOTI1MDc5MjgzNQoJCX0KCV0KfQo=

> <s_m_subgroup_title>
5WFD-out->5WFD - prepared_split_by_chain->5WFD - prepared_chainB_split_by_structure

> <s_m_subgroupid>
5WFD-out->5WFD - prepared_split_by_chain->5WFD - prepared_chainB_split_by_structure

> <b_m_subgroup_collapsed>
0

$$$$
