7D42 - minimized_ligand
                    3D
 Structure written by MMmdl.
 66 72  0  0  1  0            999 V2000
   23.0390   -9.2986  -44.7585 C   0  0  0  0  0  0
   22.9959  -10.5529  -45.3931 C   0  0  0  0  0  0
   22.0492  -11.5252  -45.0601 C   0  0  0  0  0  0
   21.1103  -11.2332  -44.0582 C   0  0  0  0  0  0
   21.1312   -9.9597  -43.4326 C   0  0  0  0  0  0
   22.0765   -8.9877  -43.7825 C   0  0  0  0  0  0
   24.1249   -8.3143  -45.0885 C   0  0  0  0  0  0
   19.4649  -11.5505  -42.6238 C   0  0  0  0  0  0
   16.5097  -13.4815  -41.9012 C   0  0  0  0  0  0
   16.3006  -12.2433  -41.0109 C   0  0  0  0  0  0
   17.7102  -11.6781  -40.7886 C   0  0  1  0  0  0
   18.4208  -12.2406  -39.5244 C   0  0  0  0  0  0
   18.4653  -13.7897  -39.4880 C   0  0  2  0  0  0
   18.7153  -14.3684  -40.9118 C   0  0  0  0  0  0
   18.0314  -13.5716  -42.0597 C   0  0  2  0  0  0
   17.2180  -15.6299  -38.4774 C   0  0  0  0  0  0
   16.1959  -15.8440  -37.3700 C   0  0  0  0  0  0
   16.3355  -16.5549  -36.1901 C   0  0  0  0  0  0
   14.8828  -15.3679  -37.2725 C   0  0  0  0  0  0
   17.4641  -17.3217  -35.5617 C   0  0  0  0  0  0
   17.1429  -18.6511  -34.9351 C   0  0  0  0  0  0
   17.4867  -17.4691  -34.0586 C   0  0  0  0  0  0
   14.1890  -14.4882  -38.2358 C   0  0  0  0  0  0
   14.0555  -14.8744  -39.5757 C   0  0  0  0  0  0
   13.5121  -13.9793  -40.4967 C   0  0  0  0  0  0
   13.1355  -12.7041  -40.0862 C   0  0  0  0  0  0
   13.2127  -12.3363  -38.7446 C   0  0  0  0  0  0
   13.7353  -13.2322  -37.8162 C   0  0  0  0  0  0
   13.5875  -17.0717  -40.3648 C   0  0  0  0  0  0
   22.0728  -12.7315  -45.6706 F   0  0  0  0  0  0
   12.5555  -17.1218  -39.5201 F   0  0  0  0  0  0
   14.1942  -18.2562  -40.3275 F   0  0  0  0  0  0
   13.1600  -16.8527  -41.6063 F   0  0  0  0  0  0
   20.1624  -12.0914  -43.5861 N   0  0  0  0  0  0
   18.4278  -12.1682  -41.9631 N   0  0  0  0  0  0
   14.2647  -15.7691  -36.1891 N   0  0  0  0  0  0
   24.8788   -8.5662  -46.0557 O   0  0  0  0  0  0
   24.2297   -7.2893  -44.3772 O   0  5  0  0  0  0
   17.2654  -14.2542  -38.8537 O   0  0  0  0  0  0
   15.1804  -16.5261  -35.4844 O   0  0  0  0  0  0
   14.5448  -16.0893  -39.9952 O   0  0  0  0  0  0
   19.8676   -9.8924  -42.2190 S   0  0  0  0  0  0
   23.7300  -10.8035  -46.1470 H   0  0  0  0  0  0
   22.0796   -8.0327  -43.2754 H   0  0  0  0  0  0
   16.0320  -13.3299  -42.8704 H   0  0  0  0  0  0
   16.0961  -14.3934  -41.4724 H   0  0  0  0  0  0
   15.8309  -12.4846  -40.0597 H   0  0  0  0  0  0
   15.6640  -11.5198  -41.5214 H   0  0  0  0  0  0
   17.6747  -10.5895  -40.7433 H   0  0  0  0  0  0
   17.9354  -11.8616  -38.6260 H   0  0  0  0  0  0
   19.4381  -11.8473  -39.4831 H   0  0  0  0  0  0
   19.2818  -14.0910  -38.8314 H   0  0  0  0  0  0
   18.3990  -15.4055  -40.9611 H   0  0  0  0  0  0
   19.7893  -14.3781  -41.0978 H   0  0  0  0  0  0
   18.2945  -14.0058  -43.0258 H   0  0  0  0  0  0
   16.9894  -16.2436  -39.3477 H   0  0  0  0  0  0
   18.1962  -15.9504  -38.1370 H   0  0  0  0  0  0
   18.4089  -17.2209  -36.0684 H   0  0  0  0  0  0
   17.8686  -19.4539  -35.0617 H   0  0  0  0  0  0
   16.1130  -19.0098  -34.9487 H   0  0  0  0  0  0
   16.7120  -16.9535  -33.4949 H   0  0  0  0  0  0
   18.4274  -17.4920  -33.5137 H   0  0  0  0  0  0
   13.4519  -14.2426  -41.5425 H   0  0  0  0  0  0
   12.8320  -11.9906  -40.8302 H   0  0  0  0  0  0
   12.9121  -11.3462  -38.4337 H   0  0  0  0  0  0
   13.8412  -12.9276  -36.7843 H   0  0  0  0  0  0
  1  2  1  0  0  0
  1  6  2  0  0  0
  1  7  1  0  0  0
  2  3  2  0  0  0
  2 43  1  0  0  0
  3  4  1  0  0  0
  3 30  1  0  0  0
  4  5  2  0  0  0
  4 34  1  0  0  0
  5  6  1  0  0  0
  5 42  1  0  0  0
  6 44  1  0  0  0
  7 37  2  0  0  0
  7 38  1  0  0  0
  8 34  2  0  0  0
  8 35  1  0  0  0
  8 42  1  0  0  0
  9 10  1  0  0  0
  9 15  1  0  0  0
  9 45  1  0  0  0
  9 46  1  0  0  0
 10 11  1  0  0  0
 10 47  1  0  0  0
 10 48  1  0  0  0
 11 12  1  0  0  0
 11 35  1  0  0  0
 11 49  1  0  0  0
 12 13  1  0  0  0
 12 50  1  0  0  0
 12 51  1  0  0  0
 13 14  1  0  0  0
 13 39  1  0  0  0
 13 52  1  0  0  0
 14 15  1  0  0  0
 14 53  1  0  0  0
 14 54  1  0  0  0
 15 35  1  0  0  0
 15 55  1  0  0  0
 16 17  1  0  0  0
 16 39  1  0  0  0
 16 56  1  0  0  0
 16 57  1  0  0  0
 17 18  2  0  0  0
 17 19  1  0  0  0
 18 20  1  0  0  0
 18 40  1  0  0  0
 19 23  1  0  0  0
 19 36  2  0  0  0
 20 21  1  0  0  0
 20 22  1  0  0  0
 20 58  1  0  0  0
 21 22  1  0  0  0
 21 59  1  0  0  0
 21 60  1  0  0  0
 22 61  1  0  0  0
 22 62  1  0  0  0
 23 24  1  0  0  0
 23 28  2  0  0  0
 24 25  2  0  0  0
 24 41  1  0  0  0
 25 26  1  0  0  0
 25 63  1  0  0  0
 26 27  2  0  0  0
 26 64  1  0  0  0
 27 28  1  0  0  0
 27 65  1  0  0  0
 28 66  1  0  0  0
 29 31  1  0  0  0
 29 32  1  0  0  0
 29 33  1  0  0  0
 29 41  1  0  0  0
 36 40  1  0  0  0
M  CHG  1  38  -1
M  END
> <s_m_entry_id>
57

> <s_m_entry_name>
7d42.1_ligand

> <s_m_subgroup_title>
7D42 - minimized_split_by_structure

> <s_m_subgroupid>
7D42 - minimized_split_by_structure

> <b_m_subgroup_collapsed>
0

$$$$
